<?xml version="1.0" encoding="UTF-8"?>

<!-- generated on 06/16/25 15:17:26 by Eclipse SUMO duarouter Version 1.8.0
<configuration xmlns:xsi="http://www.w3.org/2001/XMLSchema-instance" xsi:noNamespaceSchemaLocation="http://sumo.dlr.de/xsd/duarouterConfiguration.xsd">

    <input>
        <net-file value="casa.net.xml"/>
        <route-files value="casa100.trips.xml"/>
    </input>

    <output>
        <output-file value="casa100.rou.xml"/>
        <alternatives-output value="casa100.rou.alt.xml"/>
    </output>

    <report>
        <ignore-errors value="true"/>
    </report>

</configuration>
-->

<routes xmlns:xsi="http://www.w3.org/2001/XMLSchema-instance" xsi:noNamespaceSchemaLocation="http://sumo.dlr.de/xsd/routes_file.xsd">
    <vehicle id="0" depart="0.00">
        <route edges="36362997#0 575587483#1 575587483#2 263701416#14 1055826785#0 1055826785#1 1055826785#2 1055826785#3 1055826785#4 1055826785#5 1055826785#6 30134967#1 30134967#1-AddedOffRampEdge 1316544767#0 1316544767#1 421693906 421867492 421867538 30134893#0 30134893#1 30134893#2 30134893#3 30134893#4 30134893#5 30134893#6 423231714#0 423231714#1 423231714#2 380959227#0 380959227#1 380959227#2 380959227#3 380959227#4 380959227#5 380959227#7 380959227#8 380959227#9 -174059124#2 -174059124#1"/>
    </vehicle>
    <vehicle id="1" depart="1.00">
        <route edges="-421877064#1 -421877064#0 421877040#0 421877040#2 1117516190#0 1117516190#1 128003784#0 128003784#1 128003784#2 128003784#3 128003784#4 128003784#5 128003784#7 128003784#8 379769496 575661439#0 575661439#1 392690768#2 392690768#3 415639992#0 415639992#1 415639992#2 588813444 380959227#1 380959227#2 380959227#3 380959227#4 380959227#5 380959227#7 380959227#8 380959227#9 30135023#1 30135023#2 30135023#3 30135023#4 1117229385 423231677 1117229386 423231672 157794307 1308568107#0 1308568107#1 -186242132#9 -186242132#8 -186242132#7 -186242132#6 -186242132#5 -186242132#4 -186242132#3 -186242132#2 -186242132#1 38705181#0 38705181#1 38705181#2 38705181#3 38705183#0 38705183#1 38705183#2 38705183#3 -38705181#3"/>
    </vehicle>
    <vehicle id="2" depart="2.00">
        <route edges="38748595#0 -38748594#2 -38748594#1 -38748594#0 -421693899 421693900#0 421693900#1 1112383667#0 41168776#0 41168776#1 592193999 381025455#4 381025455#5"/>
    </vehicle>
    <vehicle id="3" depart="3.00">
        <route edges="575618670 575618669#0 575618669#1 174273395#0 174273395#1 -174273344#1 -174273344#0 38705195#0 38705195#1 60731742#5 60731742#6 222801788#0 222801788#1 222801788#2 222801788#3 380959231#0 380959231#1 380959229#2 423231698 423231714#0 379769495#0 379769495#1 379769495#2 392690768#5 575661438#0 575661438#1 379769494 415639993#0 415639993#1 36362356#4 36362356#5 36362356#6 36362356#7 36362356#0 36361610 243396872#1 243396872#2 243396872#3 243396872#4 243396872#5 36361613#0 36361613#1 -214848755#0"/>
    </vehicle>
    <vehicle id="4" depart="4.00">
        <route edges="1315907225#2 1315907238#0 580414651#6 580414651#7 580414651#8 580414651#11 414278654 414278654-AddedOffRampEdge 556152526 556152526-AddedOffRampEdge 680799776 556297272-AddedOnRampEdge 556297272 728896291-AddedOnRampEdge 728896291 728896291-AddedOffRampEdge 662871654 627633648-AddedOnRampEdge 627633648 408836132#0-AddedOnRampEdge 408836132#0 727372368 -590599074 249545454#0 249545454#2 -579278790#0 590599075 -36361860#13 -36361860#12 36362022#0 36362022#1 36362022#2 36362022#3 36362022#4 128003784#8 379769496 575661439#0 575661439#1 392690768#2 392690768#3 415639992#0 415639992#1 415639992#2 415639992#3 423231714#2 423231683 380959229#0 380959229#1 380959229#2 380959228#0 380959228#1 380959228#1-AddedOffRampEdge 1308567389#0 1308567389#1 1308567389#2 30134909#2-AddedOnRampEdge 30134909#2 30134909#3 30134909#4 30134909#5 -174273386#2 -174273386#1 -174273386#0 607436516#0 607436516#1 174273287#6 174273287#7 174273287#8 174273287#9 174273287#10 -174273287#10"/>
    </vehicle>
    <vehicle id="5" depart="5.00">
        <route edges="-38705174#3 -38705174#2 575675026 186242132#4 186242132#5 186242132#6 186242132#7 186242132#8 186242132#9 423231737#0 423231737#1 4071557#2-AddedOnRampEdge 4071557#2 4071557#3 4071557#4 30135025#1 30135025#2 30135025#3 30135025#4 30135025#5 380959229#0 380959229#1 380959229#2 423231698 423231714#0 379769495#0 379769495#1 379769495#2 392690768#5 392690768#1 392690768#2 203821787#0 203821787#1"/>
    </vehicle>
    <vehicle id="6" depart="6.00">
        <route edges="-174115250 575618648#1 575618648#2 575618648#3 575618648#4 575618648#5 575618648#6 38556525#1 38556525#2 38556525#3 38556525#4 38556525#5 590847764#0 1111870699#1 583812541 422488788 38704677 186242108#0 186242108#1 186242108#3 186242108#4 243396887#0 421693899 421693912#0 421693912#1 421693912#2 421693912#3 421693912#4 243396886#0 243396886#1 1306991012 1306991016 -38665573#3 38665572#2 38665572#3 38665571#0 -38665571#0"/>
    </vehicle>
    <vehicle id="7" depart="7.00">
        <route edges="36854377#3 301939875#3 381025455#4 381025455#5 381025455#6 381025455#7 381025455#8 381025455#9 381025455#10 421569507#1 421569507#2 421569507#3 421569507#4 421569507#5 421569507#6 1055826786#0 1055826785#0 1055826785#1 1055826785#2 1055826785#3 1055826785#4 1055826785#5 1055826785#6 30134967#1 30134967#1-AddedOffRampEdge 1316544767#0 1316544767#1 421693906 421867492 421867538 30134893#0"/>
    </vehicle>
    <vehicle id="8" depart="8.00">
        <route edges="-38705178#0 38705183#1 38705183#2 38705183#3 -38705181#3 -38705181#2 -38705181#1 -38705181#0 186242132#1 186242132#2 186242132#3 186242132#4 186242132#5 186242132#6 186242132#7 186242132#8 186242132#9 423231737#0 423231737#1 4071557#2-AddedOnRampEdge 4071557#2 4071557#3 4071557#4 30135025#1 30135025#2 30135025#3 30135025#4 30135025#5 380959229#0 380959229#1 380959229#2 380959228#0 380959228#1 380959228#1-AddedOffRampEdge 380959228#2 380959228#3 30134890 1316544766 421693898 1316544764#0 1316544764#1 30134943-AddedOnRampEdge 30134943 592193993 1055827416#0 214289476#1 515218325#0-AddedOnRampEdge 515218325#0 515218325#1 515218325#2 515218325#4 515218325#5 36361405#0 36361405#1 36361405#2 36361378#0 36361378#1 421859142#0 421859142#1 421859142#2 421569519 421569514#0 421569514#1 421569510 421859133 36360655#0 338992182#0 338992182#1 36361151#0"/>
    </vehicle>
    <vehicle id="9" depart="9.00">
        <route edges="421693912#3 -421693912#3 -421693912#2 -421693912#1 -421693912#0 421693922#0 421693922#1 421693922#2 421693922#3 421693922#4 422488756#1 521295612 521295611#0 521295611#1 521295611#2 521295611#3 521295611#4 423499340 1111870594 -1111870593#2 -1111870593#0 590847761 -38556525#5 -38556525#4 -38556525#3 -579326736#3 -579326736#1 -579326736#0 -38556532#7 -38556532#6 -38556532#5 -38556532#3 -38556532#2 -38556532#1 -38556532#0 38556520#1 -110472542#3"/>
    </vehicle>
    <vehicle id="10" depart="10.00">
        <route edges="421685176#6 421685176#7 38706616#0 38706616#1 38706616#2 38706616#3 38706616#4 174297762#4 174297762#5 174297762#6 174297762#7 174297762#8 174297762#9 174297762#10 128003786#0 128003786#1 128003786#2 128003786#3 128003786#3-AddedOffRampEdge 128003786#4 128003786#5 128003786#7 128003786#8 435145318#0 435145318#1 435145318#2 435145318#3 1117516190#0 1117516190#1 128003784#0 128003784#1 128003784#2 128003784#3 128003784#4 128003784#5 128003784#7 128003784#8 379769496 575661439#0 575661439#1 392690768#2 392690768#3 415639992#0 415639992#1 415639992#2 415639992#3 423231714#2 423231683 380959229#0 380959230#0 380959230#1 -222801788#3 392693698#0 392693698#1 392693695#1 392693695#2 392693688#0 174273409#8 174273409#9 38705172#1 38705172#2 -38665573#8 -38665573#7 -38665573#6 38665573#6"/>
    </vehicle>
    <vehicle id="11" depart="11.00">
        <route edges="-579326736#3 579326736#3 38556525#3 38556525#4 38556525#5 590847764#0 1111870699#1 422488780#0 422488780#1 422488780#2 422488780#2-AddedOffRampEdge 422488780#3 381025455#1 381025455#2-AddedOnRampEdge 381025455#2 381025455#4 381025455#5 381025455#6 381025455#7 381025455#8 381025455#9 381025455#10 421569507#1 421569507#2 421569507#3 421569507#4 421569507#5 421569507#6 1055826786#0 1055826785#0 1055826785#1 1055826785#2 1055826785#3 1055826785#4 1055826785#5 1055826785#6 414879636#0 414879636#1 414879636#2 -30134965#6 -30134965#5 -165570953#4 -165570953#3 36362529#2 -36362529#2"/>
    </vehicle>
    <vehicle id="12" depart="12.00">
        <route edges="591063707#2 575589566#0 575589566#1 575589566#2 174297801 422855900#4 422855900#5 421569514#0 421569514#1 421569510 421859133 467035253 467035250 421569500#0 421569500#1 1117516193 641002500 36361395#0 36361395#1 36361395#2 36361395#3 36361395#4 36361395#5 30134967#1 30134967#1-AddedOffRampEdge 1316544767#0 1316544767#1 421693906 421867492 421867538 30134893#0 30134893#1 30134893#2 30134893#3 30134893#4 30134893#5 30134893#6 423231714#0 423231714#1 423231714#2 380959227#0 380959227#1 380959227#2 380959227#3 380959227#4 380959227#5 380959227#7 380959227#8 380959227#9 30135023#1 30135023#2 30135023#3 30135023#4 1117229385 423231677 1117229386 423231672 157794307 1308568107#0 1308568107#1 -186242132#9 -186242132#8 -186242132#7 -186242132#6 -186242132#5 -174273371#2 -174273371#1 -38766549#9 -38766549#8 -38766549#7 -38766549#6 -38766549#5 -38766549#4 -140690594#4 -140690594#3 -140690594#2 -140690594#1 -575674981#3 -575674981#2"/>
    </vehicle>
    <vehicle id="13" depart="13.00">
        <route edges="-243396878#2 -38768794#0 36362496#2 36362496#3 38768792#0 38768792#1 243396883#0 243396883#1 243396883#2 -243396883#2"/>
    </vehicle>
    <vehicle id="15" depart="15.00">
        <route edges="421693898 1316544764#0 1316544764#1 30134943-AddedOnRampEdge 30134943 592193993 1055827416#0 214289476#1 515218325#0-AddedOnRampEdge 515218325#0 515218325#1 515218325#2 515218325#4 515218325#5 36361405#0 36361405#1 36361405#2 36361378#0 36361378#1 421859142#0 421859142#1 421859142#2 421569519 421569514#0 421569514#1 421569498#0 421569498#1 421569498#2 421569498#4 421569498#5 421569498#6 579290026#0 174297762#1 174297762#2 174297762#3 174297762#4 38706622#0 38706622#1 38706622#2 38706622#3 38706618#2 38706614#3"/>
    </vehicle>
    <vehicle id="16" depart="16.00">
        <route edges="263701416#3 263701416#4 263701416#5 263701416#6 263701416#7 263701416#8 263701416#9 263701416#10 263701416#11 263701416#12 263701416#13 263701416#14 1055826785#0 1055826785#1 1055826785#2 1055826785#3 1055826785#4 1055826785#5 1055826785#6 30134967#1 30134967#1-AddedOffRampEdge 1316544767#0 1316544767#1 421693906 421867492 421867538 30134893#0 30134893#1 30134893#2 30134893#3 30134893#4 30134893#5 30134893#6 423231714#0 423231714#1 423231714#2 380959227#0 380959227#1 380959227#2 380959227#3 380959227#4 380959227#5 380959227#7 380959227#8 30135028 421884395#2-AddedOnRampEdge 421884395#2 421884395#2-AddedOffRampEdge 421884395#3 30134852 30134852-AddedOffRampEdge 30134843 30134843-AddedOffRampEdge 414278652 -575661468#0 575661467#1 590865556#1 625690852 625690856#1-AddedOnRampEdge"/>
    </vehicle>
    <vehicle id="18" depart="18.00">
        <route edges="422539939#0 422539939#1 422539939#2 422539939#3 36866505#1 36866505#2 422867217 381025455#2-AddedOnRampEdge 381025455#2 381025455#4 381025455#5 381025455#6 381025455#7 381025455#8 381025455#9 381025455#10 421569507#1 421569507#2 421569507#3 421569507#4 421569507#5 421569507#6 1055826786#0 1055826785#0 1055826785#1 1055826785#2 1055826785#3 1055826785#4 1055826785#5 1055826785#6 414879636#0 414879636#1 414879636#2 -30134965#6 -30134965#5 -30134965#4 -30134965#3 -30134965#2 -30134965#1 -30134965#0 -264034209 -590599078#5 -590599078#4 -243396873#4 -243396873#3 36362097#5"/>
    </vehicle>
    <vehicle id="19" depart="19.00">
        <route edges="550655425#1 -550655425#1 -550655421#0 38557154#1 38557154#2 203830101#2 421693911#1 421693911#2 421693900#0 421693900#1 1112383667#0 1112383667#1 1112383667#2 186240966#0 186240966#1 186240966#2 186240966#3 186240966#4 186240966#5 186240966#6 186240966#7 186240966#10 186240966#12 186240966#13 186240966#14 186240966#15 186240966#15-AddedOffRampEdge 1308567399#0 1308567399#1 1308567399#2 30134943-AddedOnRampEdge 30134943 592193993 1055827416#0 214289476#1 515218325#0-AddedOnRampEdge 515218325#0 515218325#1 515218325#2 515218325#4 515218325#5 36361405#0 36361405#1 36361405#2 36361378#0 36361378#1 421859142#0 421859142#1 421859142#2 421569519 421569514#0 421569514#1 421569498#0 421569498#1 421569498#2 421569498#4 421569498#5 421569498#6 579290026#0 30134538#3 30134538#4 30134538#5 30134538#6 749767820#0 749767820#1 174297891#1 341222708#4"/>
    </vehicle>
    <vehicle id="20" depart="20.00">
        <route edges="38704666#1 -38704666#1 38704667#3 -359665114#1 -359665114#0 1055826785#0 1055826785#1 1055826785#2 1055826785#3 1055826785#4 1055826785#5 1055826785#6 30134967#1 30134967#1-AddedOffRampEdge 1316544767#0 1316544767#1 421693906 421867492 421867538 30134893#0 30134893#1 30134893#2 30134893#3 30134893#4 30134893#5 30134893#6 423231714#0 423231714#1 423231714#2 380959227#0 380959227#1 380959227#2 380959227#3 380959227#4 380959227#5 380959227#7 380959227#8 380959227#9 30135023#1 30135023#2 30135023#3 30135023#4 1117229385 423231677 1117229386 157794305#0 157794305#1 157794305#2 157794305#3 -38765653#1 -38765653#0 -38766552#4 -174273389#4 -174273389#3"/>
    </vehicle>
    <vehicle id="21" depart="21.00">
        <route edges="-38705193#4 38705193#4 38705193#5 38705193#6 38705193#7 392693687#4 243396886#1 1306991012 1306991016 38665558#0 38665558#1 38665558#2 423706655#0 422517496#5 38704682#0 38704682#1 -140690594#7 -140690594#6 174273401#3 -474913814#1 -474913814#0"/>
    </vehicle>
    <vehicle id="22" depart="22.00">
        <route edges="-208443856#1 208443856#1 -908405461 421572464#2 421572464#3 1113194706#0 421569491#2 421569491#3 421569491#4 421569491#5 421569491#6 421569491#7 421569491#8 421569491#9 421569491#10 263701413 301939877#1 301939877#2 301939877#3-AddedOnRampEdge 301939877#3 301939877#4 301939877#5 301939877#6 1112383667#2 421693887 1112383669#0 1112383669#1 186240964#0 186240964#1 421693922#0 421693922#1 -110472522 -38748593#0"/>
    </vehicle>
    <vehicle id="23" depart="23.00">
        <route edges="-263701416#14 263701416#14 359665114#0 359665114#1 359665114#2 359665114#4 359665114#5 359665114#6 359665114#7 359665114#8 359665114#9 36361405#1 36361405#2 641002501 1117516193 36361493#0 36361493#1 36361493#2 36361493#3 36361493#4 36361493#5 36361493#6 1117516189#0 1117516189#1 36361608#8 -421877021#2 -419567584"/>
    </vehicle>
    <vehicle id="24" depart="24.00">
        <route edges="36362816#0 36362816#1 36362816#2 263701416#13 263701416#14 359665114#0 359665114#1 359665114#2 359665114#4 359665114#5 359665114#6 359665114#7 359665114#8 359665114#9 36361405#1 36361405#2 36361378#0 36361378#1 421859142#0 421859142#1 421859142#2 421569519 421569514#0 421569514#1 421569510 421859133 36360655#0 338992182#0 338992182#1 338992182#3 338992182#4 -590828911#2"/>
    </vehicle>
    <vehicle id="26" depart="26.00">
        <route edges="-41168557#1 41168557#1 41168557#2 -174273344#0 38705195#0 38705195#1 60731742#5 60731742#6 222801788#0 222801788#1 222801788#2 222801788#3 380959231#0 380959231#1 380959229#2 423231698 423231714#0 379769495#0 379769495#1 379769495#2 392690768#5 392690768#1 392690768#2 203821787#0 203821752#3 203821752#4 589985364#1 589985364#2"/>
    </vehicle>
    <vehicle id="27" depart="27.00">
        <route edges="36363136#6 579561924#1 579561924#2 579561924#3 381025455#5 381025455#6 381025455#7 381025455#8 381025455#9 381025455#10 421569507#1 421569507#2 421569507#3 421569507#4 421569507#5 421569507#6 1055826786#0 1055826785#0 1055826785#1 1055826785#2 1055826785#3 1055826785#4 1055826785#5 1055826785#6 30134967#1 30134967#1-AddedOffRampEdge 1316544767#0 1316544767#1 421693906 421867492 421867538 30134893#0 30134893#1 30134893#2 30134893#3 30134893#4 30134893#5 30134893#6 423231714#0 423231714#1 423231714#2 380959227#0 380959227#1 380959227#2 380959227#3 380959227#4 380959227#5 380959227#7 380959227#8 30135028 421884395#2-AddedOnRampEdge 421884395#2 421884395#2-AddedOffRampEdge 421884395#3 30134852 30134852-AddedOffRampEdge 30134843 30134843-AddedOffRampEdge 729193013 601162554#0 601162554#1 36361860#0 36361860#2"/>
    </vehicle>
    <vehicle id="28" depart="28.00">
        <route edges="-36363015#5 -36363015#4 263701416#9 263701416#10 263701416#11 263701416#12 263701416#13 263701416#14 359665114#0 359665114#1 359665114#2 359665114#4 359665114#5 359665114#6 359665114#7 359665114#8 359665114#9 36361405#1 36361405#2 36361378#0 36361378#1 421859142#0 421859142#1 421859142#2 421569519 421569514#0 421569514#1 421569498#0 421569498#1 421569498#2 421569498#4 421569498#5 421569498#6 579290026#0 174297762#1 174297762#2 174297762#3 174297762#4 38706622#0 38706622#1 38706622#2 38706622#3 38706622#4 38706620#2 38706620#3 38706620#4 38706619#0 38706619#1 38706619#2 421685176#3 38706614#0"/>
    </vehicle>
    <vehicle id="29" depart="29.00">
        <route edges="-36362816#3 263701416#13 263701416#14 359665114#0 359665114#1 359665114#2 359665114#4 -38704669#2 -38704669#1 -38704669#0 -36362704#3 193329894#0 -721624455 -725386722 719366028#2 -719366028#2"/>
    </vehicle>
    <vehicle id="31" depart="31.00">
        <route edges="30135025#1 30135025#2 30135025#3 30135025#4 30135025#5 380959229#0 380959229#1 380959229#2 380959228#0 380959228#1 380959228#1-AddedOffRampEdge 380959228#2 380959228#3 30134890 1316544766 421693898 1316544764#0 1316544764#1 30134943-AddedOnRampEdge 30134943 592193993 1055827416#0 214289476#1 515218325#0-AddedOnRampEdge 515218325#0 515218325#1 515218325#2 515218325#4 515218325#5 36361405#0 36361405#1 36361405#2 36361378#0 36361378#1 421859142#0 421859142#1 421859142#2 421569519 421569514#0 579541513 -575589566#2 -575589566#1 -575589566#0 -591063707#2 -591063707#1 739629019#1 739629019#2 739629019#3 739629019#4 739629019#5 -38503002#4 38503002#4"/>
    </vehicle>
    <vehicle id="32" depart="32.00">
        <route edges="435145319#0 435145319#1 435145319#2 435145319#4 435145321#1 435145321#2 435145321#3-AddedOnRampEdge 435145321#3 435145321#5 1316249775 421877026#0 421877026#1 421877026#2 421877026#3 421877026#4 421877026#5 421877026#6 421877026#8 421877026#9 421877026#10 421877026#11 421877026#12 590865555#1 590865556#0 590865556#1 625690852 625690856#1-AddedOnRampEdge 625690856#1 408836132#0-AddedOnRampEdge"/>
    </vehicle>
    <vehicle id="33" depart="33.00">
        <route edges="-38705195#1 -38705195#0 174273344#0 -41168557#2 -41168557#1 -41168557#0 38705193#3 38705193#4 38705193#5 38705193#6 38705193#7 392693687#4 243396886#1 1306991012 1306991016 -38665573#3 -38665572#1 -174273297"/>
    </vehicle>
    <vehicle id="34" depart="34.00">
        <route edges="-575618665 60731751#1 -392693699#0 -38705189#2 -38705189#1 -38705189#0 -222801788#1 38705175 -392693695#0"/>
    </vehicle>
    <vehicle id="35" depart="35.00">
        <route edges="-38704667#2 -38704667#1 -38704667#0 421569484#4 421569491#2 421569491#3 421569491#4 421569491#5 421569491#6 421569491#7 421569491#8 421569491#9 421569491#10 421569491#11 421569491#13 421569491#14 421569491#15 575618607 422539937#1-AddedOnRampEdge 422539937#1 422539937#2 422539937#4 422539937#5 579856808 422488788 38704677 186242108#0 186242108#1 590293797"/>
    </vehicle>
    <vehicle id="36" depart="36.00">
        <route edges="575587483#6 36362782#1 36362782#2 36362782#3 36362782#5 36362782#6 36362782#7 575618661 36362632#1 421569491#10 421569491#11 421569491#13 421569491#14 421569491#15 421569491#16 381025460#0 381025460#1 575618606#0 -575618649 -575618606#1"/>
    </vehicle>
    <vehicle id="37" depart="37.00">
        <route edges="36866627#3 36866627#4 157794307 1308568107#0 1308568107#1 -186242132#9 -186242132#8 -186242132#7 -186242132#6 -186242132#5 -186242132#4 -186242132#3 -186242132#2 -186242132#1 128081013 509507425 -38665558#2 -38665558#1 -38665558#0 -1306991016 1306991014#1 1306991015 1306991013 -243396886#1 392693687#5 392693687#6 392693687#7 392693687#8 392693687#9 422517488#1 422517488#3 422517488#4 422488756#1 521295612 521295611#0 521295611#1 521295611#2 521295611#3 521295611#4 423499340 1111870594 -1111870593#2 -1111870593#0 1111870593#0 1111870593#2"/>
    </vehicle>
    <vehicle id="38" depart="38.00">
        <route edges="579268692 579278794#0 579278794#1 579278794#2 556297276 408836132#2-AddedOnRampEdge 408836132#2 588813450 30134846 30135044 30135023#1 30135023#2 30135023#3 30135023#4 1117229385 423231677 1117229386 423231672 157794307 1308568107#0 1308568107#1 -186242132#9 -186242132#8 -186242132#7 -186242132#6 -186242132#5 -174273371#2 174273371#2"/>
    </vehicle>
    <vehicle id="39" depart="39.00">
        <route edges="-392693695#1 392693695#1 392693695#2 392693688#0 174273409#8 174273409#9 38705172#1 38705172#2 38705172#3 1164064574#0 711227702 -186242132#5 -174273371#2 -174273371#1 -38766549#9 -38766549#8 -38766549#7 -38766549#6 -38766549#5 -38766549#4 -38766549#3 -38766549#2 -38766549#1"/>
    </vehicle>
    <vehicle id="40" depart="40.00">
        <route edges="301589276#6 301589276#7 301589276#8 301589276#9 301589276#10 128003786#0 128003786#1 128003786#2 128003786#3 128003786#3-AddedOffRampEdge 203937561#0 203937561#1 203937561#2 435145321#3-AddedOnRampEdge 435145321#3 435145321#5 1316249775 421877026#0 421877026#1 421877026#2 421877026#3 421877026#4 421877026#5 421877026#6 421877026#8 421877026#9 421877026#10 421877026#11 38502252#1 38502252#2 590865527 579796503#0 -38788735#1"/>
    </vehicle>
    <vehicle id="41" depart="41.00">
        <route edges="359665114#6 359665114#7 359665114#8 359665114#9 36361405#1 36361405#2 36361378#0 36361378#1 421859142#0 421859142#1 421859142#2 421569519 421569514#0 421569514#1 421569510 421859133 36360655#0 338992182#0 338992182#1 338992182#3 338992182#4 36360878#0 174273349#3 174273349#4 435145319#1 435145319#2 435145319#4 435145321#1 435145321#2 435145321#3-AddedOnRampEdge 435145321#3 435145321#5 1316249775 421877026#0 421877026#1 421877026#2 421877026#3 421877026#4 421877026#5 421877026#6 421877026#8 421877026#9 421877026#10 421877026#11 421877026#12 590865555#1 590865556#0 -575661467#1 575661468#0"/>
    </vehicle>
    <vehicle id="42" depart="42.00">
        <route edges="1126938292#3 -1126938292#0 208443888#0 208443888#1 193329894#10 421569484#2 421569484#3 421569484#4 421569507#1 421569507#2 421569507#3 421569507#4 421569507#5 421569507#6 1055826786#0 1055826785#0 1055826785#1 1055826785#2 1055826785#3 1055826785#4 1055826785#5 1055826785#6 30134967#1 30134967#1-AddedOffRampEdge 1316544767#0 1316544767#1 421693906 421867492 421867538 30134893#0 30134893#1 30134893#2 30134893#3 30134893#4 30134893#5 30134893#6 423231714#0 423231714#1 423231714#2 380959227#0 380959227#1 380959227#2 380959227#3 380959227#4 380959227#5 380959227#7 380959227#8 380959227#9 30135023#1 30135023#2 30135023#3 30135023#4 1117229385 423231677 1117229386 423231672 157794307 1308568107#0 1308568107#1 -186242132#9 -186242132#8 38705173 -38705174#4"/>
    </vehicle>
    <vehicle id="44" depart="44.00">
        <route edges="-243396876#4 243396876#4 243396876#5 36362333#1 36361395#2 36361395#3 36361395#4 36361395#5 30134967#1 30134967#1-AddedOffRampEdge 1316544767#0 1316544767#1 421693906 421867492 421867538 30134893#0 30134893#1 30134893#2 30134893#3 30134893#4 30134893#5 30134893#6 423231714#0 423231714#1 423231714#2 380959227#0 380959227#1 380959227#2 380959227#3 380959227#4 380959227#5 380959227#7 380959227#8 380959227#9 30135023#1 30135023#2 30135023#3 30135023#4 1117229385 423231677 1117229386 423231672 157794307 1308568107#0 1308568107#1 -186242132#9 -186242132#8 -186242132#7 -186242132#6 -186242132#5 -186242132#4 -186242132#3 -186242132#2 -186242132#1 38704682#0 38704682#1 38704682#2 38704682#3 38704682#4 174273273#0 174273273#1 -174273393#4"/>
    </vehicle>
    <vehicle id="45" depart="45.00">
        <route edges="-349333663#2 349333663#2 186242108#3 186242108#4 243396887#0 421693900#0 421693900#1 1112383667#0 1112383667#1 1112383667#2 186240966#0 186240966#1 186240966#2 186240966#3 186240966#4 186240966#5 186240966#6 186240966#7 186240966#10 186240966#12 186240966#13 186240966#14 186240966#15 186240966#15-AddedOffRampEdge 1308567399#0 1308567399#1 1308567399#2 30134943-AddedOnRampEdge 30134943 592193993 1055827416#0 414879636#0 414879636#1 414879636#2 -38768794#1 -38768794#0 36362496#2 36362496#3 36362496#0 36362529#0"/>
    </vehicle>
    <vehicle id="46" depart="46.00">
        <route edges="419809504 -36867535#8 -36867535#4 -36867535#3 -36867535#1 -36867535#0 1316249772 1270590909#0 36867528#0 36867528#1 36867528#2 36867528#3 1270628430#0 1270628430#1 1270628430#2 -421877064#4 -421877064#3 -421877064#2 -421877064#1 -421877064#0 421877040#0 421877040#2 1117516190#0 1117516190#1 -36361493#6 -36361493#5 -36361493#4 -36361493#3 -36361493#2 -36361493#1 36362333#0 36362333#1 36361395#2 36361395#3 36361395#4 36361395#5 30134967#1 30134967#1-AddedOffRampEdge 1316544767#0 1316544767#1 421693906 421867492 421867538 423231681 30134890 30134909#0 30134909#1 30134909#2-AddedOnRampEdge 30134909#2 30134909#3 30134909#4 30134909#5 186240966#12 186240966#13 186240966#14 186240966#15 186240966#15-AddedOffRampEdge 1308567399#0 1308567399#1"/>
    </vehicle>
    <vehicle id="47" depart="47.00">
        <route edges="-193333005#0 -38768781 193333005#1 -36361151#0 -338992182#1 -338992182#0 467035259#1 467035250 202733878 421859142#0 421859142#1 421859142#2 421569519 421569514#0 421569514#1 421569498#0 421569498#1 421569498#2 -739629020#2 -739629020#1"/>
    </vehicle>
    <vehicle id="48" depart="48.00">
        <route edges="739629020#2 -739629020#2 -184134304#1 575589566#1 575589566#2 174297801 422855900#4 422855900#5 421569514#0 421569514#1 421569510 421859133 467035253 467035250 421569500#0 421569500#1 1117516193 641002500 36361395#0 36361395#1 36361395#2 36361395#3 36361395#4 -243396878#3 243396878#3"/>
    </vehicle>
    <vehicle id="49" depart="49.00">
        <route edges="60731748#0 -60731748#0 60731742#4 60731742#5 60731742#6 222801788#0 222801788#1 222801788#2 222801788#3 380959231#0 380959231#1 380959229#2 423231698 423231714#0 423231714#1 423231714#2 380959227#0 380959227#1 380959227#2 380959227#3 380959227#4 380959227#5 380959227#7 380959227#8 30135028 421884395#2-AddedOnRampEdge 421884395#2 421884395#2-AddedOffRampEdge 421884395#3 30134852 30134852-AddedOffRampEdge 30134843 30134843-AddedOffRampEdge 414278652 662872376#0 662872376#1 580414651#6 580414651#7 580414651#8 580414651#11 414278654 414278654-AddedOffRampEdge 556152526 556152526-AddedOffRampEdge 680799776 556297272-AddedOnRampEdge"/>
    </vehicle>
    <vehicle id="50" depart="50.00">
        <route edges="-125704721#1 38768777 1055826785#3 1055826785#4 1055826785#5 1055826785#6 30134967#1 30134967#1-AddedOffRampEdge 1316544767#0 1316544767#1 421693906 421867492 421867538 30134893#0 30134893#1 30134893#2 30134893#3 30134893#4 30134893#5 30134893#6 423231714#0 423231714#1 423231714#2 423231683 380959229#0 380959230#0 380959230#1 -222801788#3 392693698#0 392693698#1 392693695#1 392693695#2 392693688#0 174273409#8 174273409#9 38705172#1 -38705182#4 -38705182#3 -38705182#2 38705182#2"/>
    </vehicle>
    <vehicle id="51" depart="51.00">
        <route edges="38503002#2 38503002#4 739629019#6 739629019#7 739629019#8 739629019#9 739629019#0 591063707#0 591063707#2 575589566#0 575589566#1 38705057#1 338992184#5 338992184#6 421569484#0 421569484#1 421569484#2 421569484#3 421569484#4 421569491#2 421569491#3 421569491#4 421569491#5 36363014#0 36363014#1 36363014#2 -263701416#10 263701416#10"/>
    </vehicle>
    <vehicle id="52" depart="52.00">
        <route edges="-41168557#1 -38705166#1 -38705193#0 575618670 575618669#0 575618669#1 708473174 186240966#10 186240966#12 186240966#13 186240966#14 186240966#15 186240966#15-AddedOffRampEdge 1308567399#0 1308567399#1 1308567399#2 30134943-AddedOnRampEdge 30134943 592193993 30134951#0 30134951#1 1055826784#0 1055826784#1 1055826784#2 1055826784#3 1055826784#4 1055826784#5 1055826783#1 423231674#0 423231674#1 423231674#2 423231674#3 36362997#0"/>
    </vehicle>
    <vehicle id="53" depart="53.00">
        <route edges="-349333700#0 575618677#2 349333663#1 349333663#2 186242108#3 186242108#4 243396887#0 421693899 421693912#0 421693912#1 421693912#2 421693912#3 421693912#4 243396886#0 243396886#1 1306991012 1306991016 38665558#0 38665558#1 38665558#2 423706655#0 422517496#5 186242132#1 186242132#2 186242132#3 186242132#4 186242132#5 186242132#6 186242132#7 186242132#8 186242132#9 1308568106#0 1308568106#1 423239542 423231691 1117229385 423231677 1117229386 157794305#0 157794305#1"/>
    </vehicle>
    <vehicle id="54" depart="54.00">
        <route edges="174273364#1 38766556#4 174273371#1 174273371#2 186242132#5 186242132#6 186242132#7 186242132#8 186242132#9 423231737#0 423231737#1 4071557#2-AddedOnRampEdge 4071557#2 4071557#3 4071557#4 30135025#1 30135025#2 30135025#3 30135025#4 30135025#5 380959229#0 380959229#1 380959229#2 380959228#0 380959228#1 380959228#1-AddedOffRampEdge 380959228#2 380959228#3 30134890 1316544766 421693898 1316544764#0 1316544764#1 30134943-AddedOnRampEdge 30134943 592193993 1055827416#0 214289476#1 515218325#0-AddedOnRampEdge 515218325#0 515218325#1 515218325#2 515218325#4 515218325#5 36361405#0 36361405#1 36361405#2 36361378#0 36361378#1 421859142#0 421859142#1 421859142#2 421569519 421569514#0 421569514#1 421569498#0 421569498#1 421569498#2 421569498#4 421569498#5 421569498#6 579290026#0 36929496#1 36929496#2 38706609#0 40520569#1 423645199#2 590874434#0"/>
    </vehicle>
    <vehicle id="55" depart="55.00">