<?xml version="1.0" encoding="UTF-8"?>

<!-- generated on 05/11/25 16:06:01 by Eclipse SUMO duarouter Version 1.8.0
<configuration xmlns:xsi="http://www.w3.org/2001/XMLSchema-instance" xsi:noNamespaceSchemaLocation="http://sumo.dlr.de/xsd/duarouterConfiguration.xsd">

    <input>
        <net-file value="orlando.net.xml"/>
        <route-files value="orlando.trips.xml"/>
    </input>

    <output>
        <output-file value="orlando.rou.xml"/>
        <alternatives-output value="orlando.rou.alt.xml"/>
    </output>

    <report>
        <ignore-errors value="true"/>
    </report>

</configuration>
-->

<routes xmlns:xsi="http://www.w3.org/2001/XMLSchema-instance" xsi:noNamespaceSchemaLocation="http://sumo.dlr.de/xsd/routes_file.xsd">
    <vehicle id="0" depart="0.00">
        <route edges="1383288080#2 -1383288080#2 -1383288080#1 -11204339#10 -11204339#9 -11204339#8 -11204339#7 -11204339#6 -11204339#5 -11204339#4 -11204339#0 -11179409#13 -11179409#12 -11179409#11 -11179409#10 -11179409#6 -11179409#5 -11179409#4 -11179409#3"/>
    </vehicle>
    <vehicle id="1" depart="1.00">
        <route edges="-215795051#0 -215795058#2 -215795058#1 -215795058#0 -215885169 -215885168#0 -215885170#4 -215885170#3 -215885170#2 -215885170#1 -213546067#1 -215671214#1 -213546066#1 -213546063#1"/>
    </vehicle>
    <vehicle id="2" depart="2.00">
        <route edges="215359980#1 215359980#2 215359980#3 215359980#4 215359980#5 215359980#6 1356374340#0 73540500#1 73540500#2 73540500#3 73540500#4 73540500#5 213546063#0 215795020#6 215795020#7 210585009#0"/>
    </vehicle>
    <vehicle id="3" depart="3.00">
        <route edges="73531003#0 73531003#2 73531003#3 -1333099964#1 -1333099964#0 -215486792 -215359982#3 -215359982#2 -215359982#1 -215359982#0 -215359981#7 -215359981#5 -215359981#4 -215359981#3 -215359981#2 -215359981#1 -215359981#0 -1333147222#3 -1333147222#2 -1333147222#1 73540500#1 73540500#2 73540500#3 73540500#4 73540500#5 213546063#0 213546063#2 215671204#0 215671204#2 215671204#3 215671204#4 215671204#5 215671204#6 215671204#9 215671204#10 215671204#11 53848098#1 53848098#2 53848098#5 53848098#7 53848099#1 53848099#2 -104081868#6 -104081868#4 -104081868#2 -104081868#1 -104081868#0 -104081861#5 -104081861#4 -104081861#2 -104081861#0 -73540480#2 -73540480#1 215795051#8 -11201375"/>
    </vehicle>
    <vehicle id="4" depart="4.00">
        <route edges="-80776632#8 80776632#8 80776632#9 80776632#12 80776637#1 80776637#2 80776637#3 73538114#0 73538114#1 73538114#3 -213546060#0 -215885166#2 -215885166#1 -215885166#0 -215885171#3 -215885171#2 -215885171#1 -215885169 -215885168#0 -215885170#4 -215885170#3 -215885170#2 -215885170#1 -213546067#1 -215671214#1 -213546066#1 -213546063#1 1381670596#1 1381670596#4 -11180285#4 -11180285#3"/>
    </vehicle>
    <vehicle id="5" depart="5.00">
        <route edges="-213546028#2 -213546028#0 213546023#2 213546028#2 213546028#3 213546028#4 213546028#5 213546028#6 213546028#10 213546028#11 213546026#1 213546026#2 213546026#3 213546026#4 213546024#1 213546024#2 80664415#6 80664415#8 80664415#9 80664415#11 1064238116#0 1064238116#1 11188947#1"/>
    </vehicle>
    <vehicle id="6" depart="6.00">
        <route edges="-11179409#6 11179409#6 215671208#2 51064594#1 51064594#3 51064594#4 673113752#0 673113752#1 11177800#1 11177800#2 11177800#3 11177800#4 11177800#5 11177800#7 80664415#1 80664415#2 80664415#3 -213546024#2 -213546024#1"/>
    </vehicle>
    <vehicle id="7" depart="7.00">
        <route edges="156772069#0 -156772069#0 156772055#0 156772055#1 210584956#1 210584956#2 -215344910#7 -215344910#6 -215344910#4 -215344910#3 -215344910#2 -215344910#1 -215344910#0 -1331070809#1 -1331070809#0 -1076057078#2 -1076057078#1 -1076057078#0 -1076057077 -196818520#2 -196818520#1 -759689201#0 -1280118502 -44034544#1 1333150179#1 1369180067 215359980#0 215359980#1 215359980#2 215359980#3 215359980#4 215359980#5 215359980#6 1356374340#0 73540500#1 73540500#2 73540500#3 73540500#4 73540500#5 213546063#0 213546063#2 215671214#0 215671214#2 215885170#0 215885170#2 215885170#3 215885170#4 215885168#0 215885168#1 215885171#1 215885171#2 215885171#3 215885171#4 215885166#1 215885166#2 215885166#3 210328296#1 213546064#2 210328297#0 -127605064#10 -127605064#8 -127605064#7 -127605064#6 -127605064#5 -127605064#2 -127605064#1 -11198919#5 11198919#5"/>
    </vehicle>
    <vehicle id="8" depart="8.00">
        <route edges="-213546028#6 213546028#6 213546028#10 213546028#11 213546026#1 213546026#2 213546026#3 213546026#4 213546024#1 213546024#2 80664415#6 80664415#8 80664415#9 80664415#11 1064238116#0 1064238116#1 -978178450#1 -978178449 -215958376 -1333099962#1 -1333099962#0 -1333099963#1 -1333099964#1 -1333099964#0 -215486792 -215359982#3 -215359982#2 -215359982#1 -215359982#0 -215359981#7 -215359981#5 -215359981#4 -215359981#3 -215359981#2 -215359981#1 -215359981#0 -1333147222#3 -1333147222#2 -1333147222#1 -1356374340#0 -215359980#6 -215359980#5 -215359980#4 -215359980#3 -215359980#2 -215359980#1 -215359980#0 -1369180067 -1333150179#1 44034544#1 1280118502 759689201#0 196818520#1 196818520#2 1076057077 1076057078#0 1076057078#1 1076057078#2 1331070809#0 1331070809#1 215344910#0 215344910#1 215344910#2 215344910#3 215344910#4 215344910#6 215344910#7 215344910#11 215344910#12 215344910#16 215344910#17 215344910#19 1330860993#0 1330860993#1 1330860992#0"/>
    </vehicle>
    <vehicle id="9" depart="9.00">
        <route edges="43990457#1 -43990457#1 -11189528#1 -11189528#0 49847026#0 49847026#1 49847026#2 73538109#0 73538109#1 73538109#2 73538102#0 73538102#1 215671204#0 215671204#2 215671204#3 215671204#4 215671204#5 215671204#6 215671204#9 215671204#10 215671204#11 53848098#1 53848098#2 53848098#5 53848098#7 53848099#1 53848099#2 -104081868#6"/>
    </vehicle>
    <vehicle id="10" depart="10.00">
        <route edges="43990411#2 43990411#3 53848098#5 53848098#7 53848099#1 53848099#2 75459746#0 75459746#2 75459746#3 75459746#4 75459746#6 75459746#8 213546027#11 213546027#12"/>
    </vehicle>
    <vehicle id="11" depart="11.00">
        <route edges="-556587035#1 -556587035#0 556587035#0 556587035#1 -494288008#2 -494288008#1 -494288008#0 556550707#1 53848263#0 53848263#1 49847029#0 49847028#1 1071944683 -552931294 -157551368#6 -157551368#4 -157551368#3 -157551368#2 -157551368#1 -80659106#4 -80659106#3 -80659106#0 -548603179#1 80659133#1 80659133#2 80659133#3 80659133#4 80659133#5 80659133#6 49847026#0 49847026#1 49847026#2 73538109#0 73538109#1 73538109#2 73538102#0 73538102#1 215671204#0 215671204#2 215671204#3 215671204#4 215671204#5 215671204#6 215671204#9 215671204#10 215671204#11 53848098#1 53848098#2 53848098#5 53848098#7 53848099#1 53848099#2 -104081868#6 -104081868#4 -104081868#2 -104081868#1 -104081868#0 -104081861#5 -104081861#4 -156772091#7"/>
    </vehicle>
    <vehicle id="12" depart="12.00">
        <route edges="80664413#1 -11204339#10 -11204339#9 -11204339#8 -11204339#7 -11204339#6 -11204339#5 -11204339#4 -11204339#0 -11179409#13 -11179409#12 -11179409#11 -11179409#10 215671208#2 51064594#1 51064594#3 51064594#4 673113752#0 673113752#1 80659133#1 80659133#2 80659133#3 80659133#4 80659133#5 80659133#6 49847026#0 49847026#1 49847026#2 73538109#0 73538109#1 73538109#2 73538102#0 73538102#1 215671204#0 215671204#2 215671204#3 215671204#4 215671204#5 215671204#6 215671204#9 215671204#10 215671204#11 53848098#1 53848098#2 -43990411#3 -67567288#7 -67567288#6"/>
    </vehicle>
    <vehicle id="13" depart="13.00">
        <route edges="-11203462#0 770576123#1 770576123#2 215885168#0 215885168#1 215885171#1 215885171#2 215885171#3 215885171#4 215885166#1 215885166#2 215885166#3 -73538114#3 -73538114#1 -73538114#0 -80776637#3 -80776637#2 -80776637#1 -1038707887#7 -1038707887#4 -1038707887#1 -1109277586#3 -1109277586#1 -49846076#4 -49846076#2 -49846076#1 -49846076#0 -11192510#1 -11182195#8 -11182195#6 -11182195#5 -11182195#4 -11182195#2 -11182195#0 -1121166926"/>
    </vehicle>
    <vehicle id="14" depart="14.00">
        <route edges="51064594#4 673113752#0 673113752#1 80659133#1 80659133#2 80659133#3 80659133#4 80659133#5 80659133#6 11189528#0 11189528#1 43990457#1 43990457#2 1353302425 1353302427#1 1353302427#2 1353302427#3 1353302427#4 1353302427#5 1353302427#6"/>
    </vehicle>
    <vehicle id="15" depart="15.00">
        <route edges="43990411#6 43990411#7 43990411#8 43990411#9 43990411#12 43990411#13 43990411#16 43990411#17 43990411#19 43990411#23 44034544#1 1280118502 759689201#0 196818520#1 196818520#2 1076057077 1076057078#0 1076057078#1 1076057078#2 1331070809#0 1331070809#1 215344910#0 215344910#1 215344910#2 215344910#3 215344910#4"/>
    </vehicle>
    <vehicle id="16" depart="16.00">
        <route edges="11193647#1 -11193647#1 80664413#1 47528851#1 47528851#4 47528851#5 -11182195#8 -11182195#6 -11182195#5 -11182195#4 -11182195#2 -11182195#0 -1121166926 -80745435#1 -80742698#1 80742716#2 80742716#3"/>
    </vehicle>
    <vehicle id="17" depart="17.00">
        <route edges="-73538120#2 213546022#2 213546022#3 213546022#4 213546022#5 73540500#4 73540500#5 213546063#0 213546063#2 215671214#0 215671214#2 215885170#0 215885170#2 215885170#3 215885170#4 215885168#0 215885168#1 215885171#1 215885171#2 215885171#3 215885171#4 215885166#1 215885166#2 215885166#3 210328288#1 213546019#1 213546019#2 213546019#3 213546019#4 213546019#5 213546019#8 215795049#1 215795049#3 215795049#4 215795049#5 -210585002 11202174#1"/>
    </vehicle>
    <vehicle id="18" depart="18.00">
        <route edges="47026730#2 47026730#3 47026730#4 49847028#1 1071944683 -552931294 -157551368#6 -157551368#4 -157551368#3 -157551368#2 -157551368#1 -80659106#4 -80659106#3 -80659106#0 -548603179#1 80659133#1 80659133#2 80659133#3 80659133#4 80659133#5 80659133#6 11189528#0 11189528#1 43990457#1 43990457#2 1353302425 1353302427#1 1353302427#2 1353302427#3 1353302420 1353302428#0 1353302428#1 1381660079#0 1381660079#1"/>
    </vehicle>
    <vehicle id="19" depart="19.00">
        <route edges="552931299#6 -552931299#6 -552931299#5 -552931299#3 -552931299#2 -552931299#0 -947062713#1 80664413#1 47528851#1 47528851#4 47528851#5 11192510#1 49846076#0 49846076#1 49846076#2 49846076#4 1109277586#1 1109277586#3 1038707887#1 1038707887#4 1038707887#7 80776637#1 80776637#2 80776637#3 73538114#0 73538114#1 73538114#3 210328288#1 213546019#1 213546019#2 213546019#3 213546019#4 213546019#5 213546019#8 213546019#10 213546019#12 127588489#0 127588489#2 127588489#3 127588489#4"/>
    </vehicle>
    <vehicle id="20" depart="20.00">
        <route edges="213546027#3 213546027#4 213546027#5 11197290#2 11197290#3 11197290#4 213579726#0 213579726#2 213579726#3 196818520#1 196818520#2 1076057077 1076057078#0 1076057078#1 1076057078#2 1331070809#0 1331070809#1 215344910#0 215344910#1 215344910#2 215344910#3 215344910#4 11186206#1 -11186206#1"/>
    </vehicle>
    <vehicle id="21" depart="21.00">
        <route edges="-213546035#5 -213546035#4 -213546035#2 -213546035#1 -11176217#9 -11176217#8 -11176217#4 -11176217#3 -11176217#2 -11176217#1 -43990411#19 -43990411#17 -43990411#16 -43990411#13"/>
    </vehicle>
    <vehicle id="22" depart="22.00">
        <route edges="-11197290#2 11197290#2 11197290#3 11197290#4 213579726#0 213579726#2 213579726#3 196818520#1 196818520#2 1076057077 1076057078#0 1076057078#1 1076057078#2 1331070809#0 1331070809#1 215344910#0 215344910#1 215344910#2 -215344910#2"/>
    </vehicle>
    <vehicle id="23" depart="23.00">
        <route edges="-1160435050#7 -1160435050#6 -1160435050#5 -1160435050#0 -11197189#4 -11197189#1 47528851#4 47528851#5 11192510#1 49846076#0 49846076#1 49846076#2 49846076#4 1109277586#1 1109277586#3 1038707887#1 1038707887#4 1038707887#7 80776637#1 80776637#2 80776637#3 -11192348#8 -215885158#9"/>
    </vehicle>
    <vehicle id="24" depart="24.00">
        <route edges="1381677220#4 11180285#1 11180285#2 11180285#3 11180285#4 73538120#0 73538120#1 73538120#2 -73538120#2"/>
    </vehicle>
    <vehicle id="25" depart="25.00">
        <route edges="-73538116#1 73538116#1 -156772091#9 104081861#3 104081861#5 104081868#0 104081868#1 104081868#2 104081868#4 104081868#5 -53848099#2 -53848099#1 -53848099#0 -53848098#5 -53848098#2 -53848098#1 -53848098#0 -215671204#10 -215671204#9 -215671204#6 -215671204#5 -215671204#4 -215671204#3 -215671204#2 -215671204#1 -73538102#2 -73538102#0 -73538109#2 -73538109#1 -73538109#0 -49847026#2 -49847026#1 -49847026#0 -80659133#6 -80659133#5 -80659133#4 -80659133#3 -80659133#2 -80659133#1 11177800#1 11177800#2 11177800#3 11177800#4 11177800#5 11177800#7 80664415#1 80664415#2 80664415#3 -213546024#2 -213546024#1 -213546024#0 -213546026#3 -213546026#2 -213546026#1 -213546028#11 -213546028#10 -213546028#6 -213546028#5 -213546028#4"/>
    </vehicle>
    <vehicle id="26" depart="26.00">
        <route edges="-215671206#4 -215671206#3 -215671206#2 -215671206#0 -213546047#1 80742726#4 80742726#5 1121166925#1 11182195#0 11182195#2 11182195#4 11182195#5 11182195#6 11182195#8 11192510#1 49846076#0 49846076#1 49846076#2 49846076#4 1109277586#1 1109277586#3 1038707887#1 1038707887#4 1038707887#7 80776637#1 80776637#2 80776637#3 73538114#0 73538114#1 73538114#3 210328288#1 213546019#1 213546019#2 213546019#3 213546019#4 213546019#5 213546019#8 213546019#10 213546019#12 127588489#0 127588489#2 127588489#3 127588489#4 73540480#0 73540480#1 73540480#2 104081861#0 104081861#1 104081861#3 104081861#5 104081868#0 104081868#1 104081868#2 104081868#4 104081868#5 75459746#0 75459746#2"/>
    </vehicle>
    <vehicle id="27" depart="27.00">
        <route edges="156772057#2 -156772057#2 -210584958#1 -210584958#0 -127588518#0 -127588520#1 -53848099#2 -53848099#1 -53848099#0 -53848098#5 -53848098#2 -53848098#1 -53848098#0 -215671204#10 -215671204#9 -215671204#6 -215671204#5 -215671204#4 -215671204#3 -215671204#2 -215671204#1 -73538102#2 -73538102#0 -73538109#2 -73538109#1 -73538109#0 -49847026#2 -49847026#1 -49847026#0 -80659133#6 -80659133#5 -80659133#4 -80659133#3 -80659133#2 -80659133#1 548603179#1 548603179#2 80659106#3 80659106#4 80664414#1 80664414#3 80664414#4 80664414#5 80664413#1 47528851#1 135787592#1"/>
    </vehicle>
    <vehicle id="28" depart="28.00">
        <route edges="-157848753#0 157848753#0 -1330860993#1 -1330860993#0 -215344910#19 -215344910#17 -215344910#16 -215344910#12 -215344910#11 -215344910#7 -215344910#6 -215344910#4 -215344910#3 215344910#3"/>
    </vehicle>
    <vehicle id="29" depart="29.00">
        <route edges="-157403432#1 -157403432#0 73540500#3 73540500#4 73540500#5 213546063#0 213546063#2 215671214#0 215671214#2 73541769#3 73541769#5 73541769#6 73541769#7 73542497#0 -73542497#0"/>
    </vehicle>
    <vehicle id="30" depart="30.00">
        <route edges="906564974#3 1054554189 80664634#0 80664634#1 80664634#3 80664634#4 -1111960835#1 -1228795003#4 -1228795003#2 -1228795003#1 -1228795003#0 -1228795002 -1329294572 -140210324#2 -978178450#1 -978178449 -215958376 -1333099962#1 -1333099962#0 -1333099963#1 -1333099964#1 -1333099964#0 -215486792 -215359982#3 -215359982#2 -215359982#1 -215359982#0 -215359981#7 -215359981#5 -215359981#4 -215359981#3 -215359981#2 -215359981#1 -215359981#0 -1333147222#3 -1333147222#2 -1333147222#1 -1356374340#0 -215359980#6 -215359980#5 -215359980#4 -215359980#3 -215359980#2 -215359980#1 -215359980#0 -1369180067 -1333150179#1 44034544#1 1280118502 759689201#0 196818520#1 196818520#2 1076057077 1076057078#0 1076057078#1 1076057078#2 1331070809#0 1331070809#1 215344910#0 215344910#1 215344910#2 215344910#3 215344910#4 215344910#6 215344910#7 -210584956#2 -210584956#1 -210584956#0 -156772055#0 156772069#0 156772069#1"/>
    </vehicle>
    <vehicle id="32" depart="32.00">
        <route edges="49847026#1 49847026#2 73538109#0 73538109#1 73538109#2 73538102#0 73538102#1 215671204#0 215671204#2 215671204#3 215671204#4 215671204#5 215671204#6 215885102#1 215885102#2"/>
    </vehicle>
    <vehicle id="33" depart="33.00">
        <route edges="-213546035#7 213546035#7 213546035#8 213546035#9 213546035#10 213546035#11 213546035#12 213546035#13 213546035#14 -75459746#10 -75459746#9 -75459746#8 -75459746#7 -75459746#5 -75459746#3 -75459746#2 -75459746#1 -104081868#6 -104081868#4 -104081868#2 -104081868#1 -104081868#0 -104081861#5 -104081861#4 -104081861#2 -104081861#0 -73540480#2 -73540480#1 -73540480#0 -127588487#0 210585119 -11181664#1 -11181664#0"/>
    </vehicle>
    <vehicle id="34" depart="34.00">
        <route edges="-47026383#11 47026383#11 47026383#12 -11176415#1 1038707887#7 80776637#1 80776637#2 80776637#3 73538114#0 73538114#1 73538114#3 210328288#1 213546019#1 213546019#2 213546019#3 213546019#4 213546019#5 213546019#8 213546019#10 213546019#12 127588489#0 127588489#2 127588489#3 127588489#4 127588487#1 11201375 -215795051#8"/>
    </vehicle>
    <vehicle id="36" depart="36.00">
        <route edges="67567288#10 67567288#11 67567288#12 -215671211#0 156772091#5 156772091#6 -104081861#2 -104081861#0 -73540480#2 -73540480#1 -73540480#0 127588487#1 73538104 157403419#0 157403419#1 11199567#0 11199567#1 11199567#2 11199567#3 11199567#4 49847559#0 -49847559#0"/>
    </vehicle>
    <vehicle id="37" depart="37.00">
        <route edges="156772091#3 -156772091#3 -156772091#2 -156772091#1 43990411#1 43990411#2 43990411#3 -53848098#2 -53848098#1 -53848098#0 -215671204#10 -215671204#9 -215671204#6 -215671204#5 -215671204#4 -215671204#3 -215671204#2 -215671204#1 -73538102#2 -73538102#0 -73538109#2 -73538109#1 -73538109#0 -49847026#2 -49847026#1 -49847026#0 -80659133#6 -80659133#5 -80659133#4 -80659133#3 -80659133#2 -80659133#1 11177800#1 11177800#2 11177800#3 11177800#4 11177800#5 11177800#7 44035020#1 -11186453#5 -11186453#4 -11186453#3 -11186453#2 80659134#1 80659134#4 -80659134#4"/>
    </vehicle>
    <vehicle id="38" depart="38.00">
        <route edges="73540483#1 73540483#2 73540483#3 73538119#0 73538119#1 73538119#2 73538119#3 73538119#4 73538119#5 73538119#6 73538119#7 73538119#8 -49847026#2 -49847026#1 -49847026#0 -80659133#6 -80659133#5 -80659133#4 -80659133#3 -80659133#2 -80659133#1 548603179#1 548603179#2 80659106#3 80659106#4 157551368#1 157551368#2 157551368#3 157551368#4 157551368#6 552931294 -1071944683 -49847028#1 -49847029#1 548635875#5 548635875#6 548635875#7 44034902#1 11177384#1"/>
    </vehicle>
    <vehicle id="39" depart="39.00">
        <route edges="-215671204#9 -215671204#6 -215671204#5 -215671204#4 -215671204#3 -215671204#2 -215671204#1 -213546066#1 -213546063#1 -73540500#6 -73540500#4 -73540500#3 -73540500#2 -73540500#1 1333147222#1 1333147222#2 1333147222#3 215359981#0 215359981#1 215359981#2 215359981#3 215359981#4 215359981#5 215359981#7 215359982#0 215359982#1 215359982#2 215359982#3 215486792 1333099964#0 -1333099964#0 -215486792"/>
    </vehicle>
    <vehicle id="40" depart="40.00">
        <route edges="11199567#4 -11199567#4 -11199567#3 -11199567#2 -11199567#1 -11199567#0 -157403419#1 -157403419#0 -73538104 -127588487#1 73540480#0 73540480#1 73540480#2 104081861#0 104081861#1 104081861#3 104081861#5 104081868#0 104081868#1 104081868#2 104081868#4 104081868#5 -53848099#2 -53848099#1 -53848099#0 -53848098#5 -53848098#2 -53848098#1 -53848098#0 -215671204#10 -215671204#9 215885102#1 215885102#2 -215795020#7 -215795020#6"/>
    </vehicle>
    <vehicle id="41" depart="41.00">
        <route edges="1228795003#0 -1228795003#0 -1228795002 -1329294572 -140210324#2 -978178450#1 -978178449 -215958376 -1333099962#1 -1333099962#0 -1333099963#1 -1333099964#1 -1333099964#0 -215486792 -73538097#2 -73538097#1 -73538097#0 73538119#0 73538119#1 73538119#2 73538119#3 73538119#4 73538119#5 73538119#6 73538119#7 73538119#8 73538109#0 73538109#1"/>
    </vehicle>
    <vehicle id="42" depart="42.00">
        <route edges="-75459746#3 75459746#3 75459746#4 75459746#6 75459746#8 75459746#9 75459746#10 -213546035#14 -213546035#13 -213546035#12 -213546035#11 -213546035#10 -213546035#9 -213546035#8"/>
    </vehicle>
    <vehicle id="43" depart="43.00">
        <route edges="995442541 -995442541 -80659134#11 -80659134#10 -80659134#8 -80659134#7 -80659134#6 -80659134#5 -80659134#4 -80659134#2 11186453#1 11186453#3 11186453#4 11186453#5 44035019#0 80664415#1 80664415#2 80664415#3 80664415#6 80664415#8 80664415#9 80664415#11 1064238116#0 1064238116#1 -978178450#1 -978178449 -215958376 -1333099962#1 -1333099962#0 -1333099963#1 -1333099964#1 -1333099964#0 -215486792 -215359982#3 -215359982#2 -215359982#1 -215359982#0 -215359981#7 -215359981#5 -215359981#4 -215359981#3 -215359981#2 -215359981#1 -215359981#0 -1333147222#3 -1333147222#2 -1333147222#1 -1356374340#0 -215359980#6 -215359980#5 -215359980#4 -215359980#3 -215359980#2 -215359980#1 -215359980#0 -1369180067 -11190133#9 -11190133#8 -11190133#7 -11190133#5 -11190133#4 -11190133#2 11190133#2"/>
    </vehicle>
    <vehicle id="45" depart="45.00">
        <route edges="-127588518#7 -127588518#5 -127588518#3 -127588518#2 -127588518#1 -127588518#0 -127588520#1 -53848099#2 -53848099#1 -53848099#0 -53848098#5 -53848098#2 -53848098#1 -53848098#0 -215671204#10 -215671204#9 -215671204#6 -215671204#5 -215671204#4 -215671204#3 -215671204#2 -215671204#1 -73538102#2 -73538102#0 -73538109#2 -73538109#1 -73538109#0 -49847026#2 -49847026#1 -49847026#0 -80659133#6 -80659133#5 -80659133#4 -80659133#3 -80659133#2 -80659133#1 548603179#1 548603179#2 80659106#3 80659106#4 80664414#1 80664414#3 80664414#4 80664414#5 80664413#1 1383288080#1"/>
    </vehicle>
    <vehicle id="46" depart="46.00">
        <route edges="215885171#3 -215885171#3 -215885171#2 -215885171#1 -215885169 -215885168#0 -215885170#4 -215885170#3 -215885170#2 -215885170#1 -213546067#1 -215671214#1 -73538102#2 -73538102#0 -73538109#2 -73538109#1 -73538109#0 -49847026#2 -49847026#1 -49847026#0 -80659133#6 -80659133#5 -80659133#4 -80659133#3 -80659133#2 -80659133#1 11177800#1 11177800#2 11177800#3 11177800#4 11177800#5 11177800#7 44035020#1 -11186453#5 -11186453#4 -11186453#3 -11186453#2 80659134#1 80659134#4 80659134#5 80659134#6 80659134#7 80659134#8 80659134#10 80659134#11 995442541 844868303#0 844868303#1 844868303#2 80538174#0 80538172#1 47026818 115673326 44035310 987606597 987606597-AddedOffRampEdge 1024754074"/>
    </vehicle>
    <vehicle id="47" depart="47.00">
        <route edges="-11192348#3 11192348#3 -47026382#2 -47026382#1 -47026382#0 -213546064#2 -213546064#0 -213546060#0 -215885166#2 -215885166#1 -215885166#0 -215885171#3 -215885171#2 -215885171#1 -215885169 -215885168#0 -215885170#4 -215885170#3 -215885170#2 -215885170#1 73541769#3 73541769#5 73541769#6 73541769#7 73542497#0 73542497#1 73542497#2 73542497#3 73542497#4 -73542497#4"/>
    </vehicle>
    <vehicle id="49" depart="49.00">
        <route edges="80742698#1 80745435#1 80745431#1 80745431#3 80745431#4 1121179679#0 44034904#1 44034904#2 1121720105 75447711#0 -552931299#9 -552931299#8 -552931299#7 552931299#7"/>
    </vehicle>
    <vehicle id="51" depart="51.00">
        <route edges="210584999#2 156166346#0 156166346#1 156166346#2 -127588518#5 -127588518#3 -127588518#2 -127588518#1 -127588518#0 -127588520#1 -53848099#2 213579727#0 213579727#1 -73538117#4 11197290#0 11197290#1 11197290#2 11197290#3"/>
    </vehicle>
    <vehicle id="52" depart="52.00">
        <route edges="-215671206#4 -215671206#3 -215671206#2 -215671206#0 -213546047#1 80742726#4 80742726#5 1121166925#1 11182195#0 11182195#2 11182195#4 11182195#5 11182195#6 11182195#8 11192510#1 49846076#0 49846076#1 49846076#2 49846076#4 1109277586#1 1109277586#3 1038707887#1 1038707887#4 1038707887#7 80776637#1 80776637#2 80776637#3 73538114#0 73538114#1 73538114#3 -213546060#0 -215885166#2 -215885166#1 -215885166#0 -215885171#3 -215885171#2 -215885171#1 -215885169 -215885168#0 -215885170#4 -215885170#3 -215885170#2 -215885170#1 -213546067#1 -215671214#1 -213546066#1 -213546063#1 -73540500#6 -73540500#4 -73540500#3 -73540500#2 -73540500#1 -1356374340#0 -215359980#6 -215359980#5 -215359980#4 -215359980#3 -215359980#2 -215359980#1 -215359980#0 -1369180067 -1333150179#1 44034544#1 1280118502 759689201#0 196818520#1 196818520#2 1076057077 1076057078#0 1076057078#1 1076057078#2 1331070809#0 1331070809#1 215344910#0 215344910#1 215344910#2 215344910#3 215344910#4 215344910#6 215344910#7 -210584956#2 -210584956#1 -210584956#0 -156772055#0 156772069#0 156772069#1 156772069#2 156772069#3"/>
    </vehicle>
    <vehicle id="53" depart="53.00">
        <route edges="-127605055#0 127605053 127605055#1 1121720105 75447711#0 47026730#1 47026730#2 47026730#3 47026730#4 80738233#3 556826744 215795011#1 215795011#3 1122572183#0 1122572183#2 1122572183#3 47026817 995746954 1043686806#0 1043686806#1"/>
    </vehicle>
    <vehicle id="54" depart="54.00">
        <route edges="1069528326 11196739#0 11196739#1 423215360 135787519#0 80742726#1 80742726#4 80742726#5 80745431#1 80745431#3 80745431#4 1121179679#0 44034904#1 44034904#2 1121720105 75447711#0 47026730#1 47026730#2 47026730#3 47026730#4 80738233#3 556826744 215795011#1 215795011#3 -1013375849 -844868303#1 -844868303#0 -995442541 -80659134#11 -80659134#10 -80659134#8 80659134#8 80659134#10"/>
    </vehicle>
    <vehicle id="55" depart="55.00">
        <route edges="67567167#2 11196649#0 11196649#1 11185558#0 11185558#1 11185558#2 215885102#1 215885102#2 -215795020#7"/>
    </vehicle>
    <vehicle id="56" depart="56.00">
        <route edges="11183171#0 11183171#1 11183171#2 73538109#1 73538109#2 73538102#0 73538102#1 215671204#0 215671204#2 215671204#3 215671204#4 215671204#5 215671204#6 215671204#9 215671204#10 215671204#11 53848098#1 53848098#2 53848098#5 53848098#7 53848099#1 53848099#2 127588520#0 127588518#0 127588518#1 127588518#2 127588518#3 127588518#4 -157848751#1 -156166346#1 -156166346#0 -210584999#2 -210584999#0 -210585001#0"/>
    </vehicle>
    <vehicle id="58" depart="58.00">
        <route edges="-423220347#2 -423220347#1 -423220347#0 215795055#0 215795055#3 215795055#4 215795055#5 -215885169 -215885168#0 -215885170#4 -215885170#3 -215885170#2 -215885170#1 -213546067#1 -215671214#1 215671204#0 215671204#2 215671204#3 215671204#4 215671204#5 215671204#6 215671204#9 215671204#10 215671204#11 53848098#1 53848098#2 53848098#5 53848098#7 53848099#1 53848099#2 127588520#0 127588518#0 127588518#1 127588518#2 127588518#3 127588518#4 157848750#0 157848750#3 157848750#4 157848750#5 157848750#6 156772062#2"/>
    </vehicle>
    <vehicle id="59" depart="59.00">
        <route edges="1353302420 1353302419 1353302427#5 1353302427#6 1353302427#7 1353302426 -43990457#2 -43990457#1 -11189528#1 -11189528#0 49847026#0 49847026#1 49847026#2 73538109#0 73538109#1 73538109#2 73538102#0 73538102#1 215671204#0 215671204#2 215671204#3 215671204#4 215671204#5 215671204#6 215671204#9 215671204#10 215671204#11 53848098#1 53848098#2 53848098#5 53848098#7 53848099#1 53848099#2 127588520#0 127588518#0 127588518#1 127588518#2 127588518#3 127588518#4 -157848751#1 -156166346#1 -156166346#0 -156772091#13"/>
    </vehicle>
    <vehicle id="60" depart="60.00">
        <route edges="215671215#0 -215671215#0 -49846077#2 -49846077#0 -80745432#1 44034864#1 1138656378#0 44034904#1 44034904#2 1121720105 75447711#0 47026730#1 47026730#2 47026730#3 47026730#4 80738233#3 556826744 215795011#1 215795011#3 80538174#0 148640488#1 148640488#3 148640488#5 1093670682#1 1093670682#3 11195044#5 11198269#0 11198269#1"/>
    </vehicle>
    <vehicle id="62" depart="62.00">
        <route edges="-1038707887#1 1109277588#1 1109277588#2 1109277589#0 -1160435050#8 -1160435050#7 -1160435050#6 -1160435050#5 -1160435050#0 -11197189#4 -11197189#1 135787592#1 135787592#3 135787592#4 135787592#5 135787592#7 135787593#0 135787593#1 135787593#2 44034904#1 44034904#2 1121720105 75447711#0 47026730#1 47026730#2 47026730#3 47026730#4 -49847029#1 -53848263#1 -53848263#0 -556550707#1 -556550707#0"/>
    </vehicle>
    <vehicle id="63" depart="63.00">
        <route edges="-11176415#4 -11176415#1 -1038707887#4 -1038707887#1 -1109277586#3 -1109277586#1 -49846076#4 -49846076#2 -49846076#1 -49846076#0 -11192510#1 74098641#1"/>
    </vehicle>
    <vehicle id="64" depart="64.00">
        <route edges="67567288#2 215671214#2 215885170#0 215885170#2 215885170#3 215885170#4 215885168#0 215885168#1 215885171#1 215885171#2 215885171#3 215885171#4 215885166#1 215885166#2 215885166#3 -73538114#3 -73538114#1 -73538114#0 -80776637#3 -80776637#2 -80776637#1 -1038707887#7 -1038707887#4 -1038707887#1 1109277588#1 1109277588#2 1109277589#0 -1160435050#8 -1160435050#7 -1160435050#6 -1160435050#5 -1160435050#0 -11197189#4 -11197189#1 47528851#4"/>
    </vehicle>
    <vehicle id="65" depart="65.00">
        <route edges="-44034420 157848750#6 157848750#7 157848750#8 157848754 157848753#0 -1330860993#1 -1330860993#0 -215344910#19 -215344910#17 -215344910#16 -215344910#12 -215344910#11 -215344910#7 -215344910#6 -215344910#4 -215344910#3 -215344910#2 -215344910#1 -215344910#0 -1331070809#1 -1331070809#0 -1076057078#2 -1076057078#1 -1076057078#0 -1076057077 -196818520#2 -196818520#1 -759689201#0 -1280118502 -44034544#1 1333150179#1 -11190133#9 -11190133#8 -11190133#7 -11190133#5"/>
    </vehicle>
    <vehicle id="66" depart="66.00">
        <route edges="67567288#13 104081868#1 104081868#2 104081868#4 104081868#5 -53848099#2 -53848099#1 -53848099#0 -53848098#5 -53848098#2 -53848098#1 -53848098#0 -215671204#10 -215671204#9 -215671204#6 -215671204#5 -215671204#4 -215671204#3 -215671204#2 -215671204#1 -73538102#2 -73538102#0 -73538109#2 -73538109#1 -73538109#0 -49847026#2 -49847026#1 -49847026#0 -80659133#6 -80659133#5 -80659133#4 -80659133#3 -80659133#2 -80659133#1 548603179#1 548603179#2 80659106#3"/>
    </vehicle>
    <vehicle id="67" depart="67.00">