<?xml version="1.0" encoding="UTF-8"?>

<!-- generated on 06/17/25 12:46:51 by Eclipse SUMO duarouter Version 1.8.0
<configuration xmlns:xsi="http://www.w3.org/2001/XMLSchema-instance" xsi:noNamespaceSchemaLocation="http://sumo.dlr.de/xsd/duarouterConfiguration.xsd">

    <input>
        <net-file value="orlando.net.xml"/>
        <route-files value="orlando20.trips.xml"/>
    </input>

    <output>
        <output-file value="orlando20.rou.xml"/>
        <alternatives-output value="orlando20.rou.alt.xml"/>
    </output>

    <report>
        <ignore-errors value="true"/>
    </report>

</configuration>
-->

<routes xmlns:xsi="http://www.w3.org/2001/XMLSchema-instance" xsi:noNamespaceSchemaLocation="http://sumo.dlr.de/xsd/routes_file.xsd">
    <vehicle id="0" depart="0.00">
        <route edges="1383288080#2 -1383288080#2 -1383288080#1 -11204339#10 -11204339#9 -11204339#8 -11204339#7 -11204339#6 -11204339#5 -11204339#4 -11204339#0 -11179409#13 -11179409#12 -11179409#11 -11179409#10 -11179409#6 -11179409#5 -11179409#4 -11179409#3"/>
    </vehicle>
    <vehicle id="1" depart="1.00">
        <route edges="-215795051#0 -215795058#2 -215795058#1 -215795058#0 -215885169 -215885168#0 -215885170#4 -215885170#3 -215885170#2 -215885170#1 -213546067#1 -215671214#1 -213546066#1 -213546063#1"/>
    </vehicle>
    <vehicle id="2" depart="2.00">
        <route edges="215359980#1 215359980#2 215359980#3 215359980#4 215359980#5 215359980#6 1356374340#0 73540500#1 73540500#2 73540500#3 73540500#4 73540500#5 213546063#0 215795020#6 215795020#7 210585009#0"/>
    </vehicle>
    <vehicle id="3" depart="3.00">
        <route edges="73531003#0 73531003#2 73531003#3 -1333099964#1 -1333099964#0 -215486792 -215359982#3 -215359982#2 -215359982#1 -215359982#0 -215359981#7 -215359981#5 -215359981#4 -215359981#3 -215359981#2 -215359981#1 -215359981#0 -1333147222#3 -1333147222#2 -1333147222#1 73540500#1 73540500#2 73540500#3 73540500#4 73540500#5 213546063#0 213546063#2 215671204#0 215671204#2 215671204#3 215671204#4 215671204#5 215671204#6 215671204#9 215671204#10 215671204#11 53848098#1 53848098#2 53848098#5 53848098#7 53848099#1 53848099#2 -104081868#6 -104081868#4 -104081868#2 -104081868#1 -104081868#0 -104081861#5 -104081861#4 -104081861#2 -104081861#0 -73540480#2 -73540480#1 215795051#8 -11201375"/>
    </vehicle>
    <vehicle id="4" depart="4.00">
        <route edges="-80776632#8 80776632#8 80776632#9 80776632#12 80776637#1 80776637#2 80776637#3 73538114#0 73538114#1 73538114#3 -213546060#0 -215885166#2 -215885166#1 -215885166#0 -215885171#3 -215885171#2 -215885171#1 -215885169 -215885168#0 -215885170#4 -215885170#3 -215885170#2 -215885170#1 -213546067#1 -215671214#1 -213546066#1 -213546063#1 1381670596#1 1381670596#4 -11180285#4 -11180285#3"/>
    </vehicle>
    <vehicle id="5" depart="5.00">
        <route edges="-213546028#2 -213546028#0 213546023#2 213546028#2 213546028#3 213546028#4 213546028#5 213546028#6 213546028#10 213546028#11 213546026#1 213546026#2 213546026#3 213546026#4 213546024#1 213546024#2 80664415#6 80664415#8 80664415#9 80664415#11 1064238116#0 1064238116#1 11188947#1"/>
    </vehicle>
    <vehicle id="6" depart="6.00">
        <route edges="-11179409#6 11179409#6 215671208#2 51064594#1 51064594#3 51064594#4 673113752#0 673113752#1 11177800#1 11177800#2 11177800#3 11177800#4 11177800#5 11177800#7 80664415#1 80664415#2 80664415#3 -213546024#2 -213546024#1"/>
    </vehicle>
    <vehicle id="7" depart="7.00">
        <route edges="156772069#0 -156772069#0 156772055#0 156772055#1 210584956#1 210584956#2 -215344910#7 -215344910#6 -215344910#4 -215344910#3 -215344910#2 -215344910#1 -215344910#0 -1331070809#1 -1331070809#0 -1076057078#2 -1076057078#1 -1076057078#0 -1076057077 -196818520#2 -196818520#1 -759689201#0 -1280118502 -44034544#1 1333150179#1 1369180067 215359980#0 215359980#1 215359980#2 215359980#3 215359980#4 215359980#5 215359980#6 1356374340#0 73540500#1 73540500#2 73540500#3 73540500#4 73540500#5 213546063#0 213546063#2 215671214#0 215671214#2 215885170#0 215885170#2 215885170#3 215885170#4 215885168#0 215885168#1 215885171#1 215885171#2 215885171#3 215885171#4 215885166#1 215885166#2 215885166#3 210328296#1 213546064#2 210328297#0 -127605064#10 -127605064#8 -127605064#7 -127605064#6 -127605064#5 -127605064#2 -127605064#1 -11198919#5 11198919#5"/>
    </vehicle>
    <vehicle id="8" depart="8.00">
        <route edges="-213546028#6 213546028#6 213546028#10 213546028#11 213546026#1 213546026#2 213546026#3 213546026#4 213546024#1 213546024#2 80664415#6 80664415#8 80664415#9 80664415#11 1064238116#0 1064238116#1 -978178450#1 -978178449 -215958376 -1333099962#1 -1333099962#0 -1333099963#1 -1333099964#1 -1333099964#0 -215486792 -215359982#3 -215359982#2 -215359982#1 -215359982#0 -215359981#7 -215359981#5 -215359981#4 -215359981#3 -215359981#2 -215359981#1 -215359981#0 -1333147222#3 -1333147222#2 -1333147222#1 -1356374340#0 -215359980#6 -215359980#5 -215359980#4 -215359980#3 -215359980#2 -215359980#1 -215359980#0 -1369180067 -1333150179#1 44034544#1 1280118502 759689201#0 196818520#1 196818520#2 1076057077 1076057078#0 1076057078#1 1076057078#2 1331070809#0 1331070809#1 215344910#0 215344910#1 215344910#2 215344910#3 215344910#4 215344910#6 215344910#7 215344910#11 215344910#12 215344910#16 215344910#17 215344910#19 1330860993#0 1330860993#1 1330860992#0"/>
    </vehicle>
    <vehicle id="9" depart="9.00">
        <route edges="43990457#1 -43990457#1 -11189528#1 -11189528#0 49847026#0 49847026#1 49847026#2 73538109#0 73538109#1 73538109#2 73538102#0 73538102#1 215671204#0 215671204#2 215671204#3 215671204#4 215671204#5 215671204#6 215671204#9 215671204#10 215671204#11 53848098#1 53848098#2 53848098#5 53848098#7 53848099#1 53848099#2 -104081868#6"/>
    </vehicle>
    <vehicle id="10" depart="10.00">
        <route edges="43990411#2 43990411#3 53848098#5 53848098#7 53848099#1 53848099#2 75459746#0 75459746#2 75459746#3 75459746#4 75459746#6 75459746#8 213546027#11 213546027#12"/>
    </vehicle>
    <vehicle id="11" depart="11.00">
        <route edges="-556587035#1 -556587035#0 556587035#0 556587035#1 -494288008#2 -494288008#1 -494288008#0 556550707#1 53848263#0 53848263#1 49847029#0 49847028#1 1071944683 -552931294 -157551368#6 -157551368#4 -157551368#3 -157551368#2 -157551368#1 -80659106#4 -80659106#3 -80659106#0 -548603179#1 80659133#1 80659133#2 80659133#3 80659133#4 80659133#5 80659133#6 49847026#0 49847026#1 49847026#2 73538109#0 73538109#1 73538109#2 73538102#0 73538102#1 215671204#0 215671204#2 215671204#3 215671204#4 215671204#5 215671204#6 215671204#9 215671204#10 215671204#11 53848098#1 53848098#2 53848098#5 53848098#7 53848099#1 53848099#2 -104081868#6 -104081868#4 -104081868#2 -104081868#1 -104081868#0 -104081861#5 -104081861#4 -156772091#7"/>
    </vehicle>
    <vehicle id="12" depart="12.00">
        <route edges="80664413#1 -11204339#10 -11204339#9 -11204339#8 -11204339#7 -11204339#6 -11204339#5 -11204339#4 -11204339#0 -11179409#13 -11179409#12 -11179409#11 -11179409#10 215671208#2 51064594#1 51064594#3 51064594#4 673113752#0 673113752#1 80659133#1 80659133#2 80659133#3 80659133#4 80659133#5 80659133#6 49847026#0 49847026#1 49847026#2 73538109#0 73538109#1 73538109#2 73538102#0 73538102#1 215671204#0 215671204#2 215671204#3 215671204#4 215671204#5 215671204#6 215671204#9 215671204#10 215671204#11 53848098#1 53848098#2 -43990411#3 -67567288#7 -67567288#6"/>
    </vehicle>
    <vehicle id="13" depart="13.00">
        <route edges="-11203462#0 770576123#1 770576123#2 215885168#0 215885168#1 215885171#1 215885171#2 215885171#3 215885171#4 215885166#1 215885166#2 215885166#3 -73538114#3 -73538114#1 -73538114#0 -80776637#3 -80776637#2 -80776637#1 -1038707887#7 -1038707887#4 -1038707887#1 -1109277586#3 -1109277586#1 -49846076#4 -49846076#2 -49846076#1 -49846076#0 -11192510#1 -11182195#8 -11182195#6 -11182195#5 -11182195#4 -11182195#2 -11182195#0 -1121166926"/>
    </vehicle>
    <vehicle id="14" depart="14.00">
        <route edges="51064594#4 673113752#0 673113752#1 80659133#1 80659133#2 80659133#3 80659133#4 80659133#5 80659133#6 11189528#0 11189528#1 43990457#1 43990457#2 1353302425 1353302427#1 1353302427#2 1353302427#3 1353302427#4 1353302427#5 1353302427#6"/>
    </vehicle>
    <vehicle id="15" depart="15.00">
        <route edges="43990411#6 43990411#7 43990411#8 43990411#9 43990411#12 43990411#13 43990411#16 43990411#17 43990411#19 43990411#23 44034544#1 1280118502 759689201#0 196818520#1 196818520#2 1076057077 1076057078#0 1076057078#1 1076057078#2 1331070809#0 1331070809#1 215344910#0 215344910#1 215344910#2 215344910#3 215344910#4"/>
    </vehicle>
    <vehicle id="16" depart="16.00">
        <route edges="11193647#1 -11193647#1 80664413#1 47528851#1 47528851#4 47528851#5 -11182195#8 -11182195#6 -11182195#5 -11182195#4 -11182195#2 -11182195#0 -1121166926 -80745435#1 -80742698#1 80742716#2 80742716#3"/>
    </vehicle>
    <vehicle id="17" depart="17.00">
        <route edges="-73538120#2 213546022#2 213546022#3 213546022#4 213546022#5 73540500#4 73540500#5 213546063#0 213546063#2 215671214#0 215671214#2 215885170#0 215885170#2 215885170#3 215885170#4 215885168#0 215885168#1 215885171#1 215885171#2 215885171#3 215885171#4 215885166#1 215885166#2 215885166#3 210328288#1 213546019#1 213546019#2 213546019#3 213546019#4 213546019#5 213546019#8 215795049#1 215795049#3 215795049#4 215795049#5 -210585002 11202174#1"/>
    </vehicle>
    <vehicle id="18" depart="18.00">
        <route edges="47026730#2 47026730#3 47026730#4 49847028#1 1071944683 -552931294 -157551368#6 -157551368#4 -157551368#3 -157551368#2 -157551368#1 -80659106#4 -80659106#3 -80659106#0 -548603179#1 80659133#1 80659133#2 80659133#3 80659133#4 80659133#5 80659133#6 11189528#0 11189528#1 43990457#1 43990457#2 1353302425 1353302427#1 1353302427#2 1353302427#3 1353302420 1353302428#0 1353302428#1 1381660079#0 1381660079#1"/>
    </vehicle>
    <vehicle id="19" depart="19.00">
        <route edges="552931299#6 -552931299#6 -552931299#5 -552931299#3 -552931299#2 -552931299#0 -947062713#1 80664413#1 47528851#1 47528851#4 47528851#5 11192510#1 49846076#0 49846076#1 49846076#2 49846076#4 1109277586#1 1109277586#3 1038707887#1 1038707887#4 1038707887#7 80776637#1 80776637#2 80776637#3 73538114#0 73538114#1 73538114#3 210328288#1 213546019#1 213546019#2 213546019#3 213546019#4 213546019#5 213546019#8 213546019#10 213546019#12 127588489#0 127588489#2 127588489#3 127588489#4"/>
    </vehicle>
</routes>
