<?xml version="1.0" encoding="UTF-8"?>

<!-- generated on 06/14/25 18:47:56 by Eclipse SUMO duarouter Version 1.8.0
<configuration xmlns:xsi="http://www.w3.org/2001/XMLSchema-instance" xsi:noNamespaceSchemaLocation="http://sumo.dlr.de/xsd/duarouterConfiguration.xsd">

    <input>
        <net-file value="city.net.xml"/>
        <route-files value="city100.trips.xml"/>
    </input>

    <output>
        <output-file value="city100.rou.xml"/>
        <alternatives-output value="city100.rou.alt.xml"/>
    </output>

    <report>
        <ignore-errors value="true"/>
    </report>

</configuration>
-->

<routes xmlns:xsi="http://www.w3.org/2001/XMLSchema-instance" xsi:noNamespaceSchemaLocation="http://sumo.dlr.de/xsd/routes_file.xsd">
    <vehicle id="0" depart="0.00">
        <route edges="329017310#1 -15164231#1 -15164231#0 8020022#5 586068819#0 586068819#1 44006926#1 389916567#0 389916567#1 8020045 328924277#0 328924277#1 328924277#2 425144818 425144817 1323417170#1 1323417170#2 1323417170#3 126153344 -126153344"/>
    </vehicle>
    <vehicle id="1" depart="1.00">
        <route edges="-850454799#2 850454799#2 850454799#3 850454799#4 850454799#5 850454799#8 850454799#9 850454799#10 850454797#0 850454797#1 8020022#0 -8020022#0"/>
    </vehicle>
    <vehicle id="2" depart="2.00">
        <route edges="390401953#2 26140722#3 126153307#1 1323417170#2 1323417170#3 8020652#1 8020652#2 8020652#3 590615562#0 590615562#2 -387299826#0 -850454798#1 -850454798#0 -850454799#10 -850454799#9 -850454799#8 -850454799#5 126153266#0 126153266#1 -329017055#12 -329017055#11 583509116#0 583509116#1 33400388"/>
    </vehicle>
    <vehicle id="3" depart="3.00">
        <route edges="590596069#0 590596069#4 590596069#5 594752192#0 594752192#1 594752192#2 8020036#0 390722704#0 390722704#1 25767806#1 25767806#2 25767806#3 -253166934#3"/>
    </vehicle>
    <vehicle id="4" depart="4.00">
        <route edges="15164181#0 15164181#1 586068821#1 586068821#2 329017055#1 329017055#2 329017055#3 329017055#4 329017055#7 329017055#8 329017055#10 329017055#11 329017055#12 126153267 -850454799#5 -850454799#4 -850454799#3 -850454799#2 -850454799#1 -850454799#0 183066606#1 183066606#2 -130004808#1"/>
    </vehicle>
    <vehicle id="5" depart="5.00">
        <route edges="-580134988 253166934#2 253166934#3 25767806#4 25767806#5 586068819#0 242845198#0 242845198#1"/>
    </vehicle>
    <vehicle id="6" depart="6.00">
        <route edges="-126153298 580097809#1 -33398788#3 -33398788#2 -33398788#1 580097806#0 580097806#1 580097806#2 172541335#4 172541335#5 580097808#1 580097808#2 580097808#3 580097808#4 33399293#2 33399293#3 33399293#4 8020040 850454799#0 850454799#1 850454799#2 850454799#3 850454799#4 850454799#5 850454799#8 850454799#9 850454799#10 850454798#0 850454798#1 387299826#0 126153258#0 126153258#1 590615561#0 -579727961 -583509115 -583509114"/>
    </vehicle>
    <vehicle id="7" depart="7.00">
        <route edges="33398731#4 33398731#5 580097806#1 580097806#2 -172541335#3 -172541335#2 -733087035#2 -733087035#1 -733087035#0 -1055850556 -1055850557 -590855843#3 -390722710#1 93205376#0 -93205376#1 390722704#0 390722704#1 25767806#1 25767806#2 25767806#3 25767806#4 25767806#5"/>
    </vehicle>
    <vehicle id="8" depart="8.00">
        <route edges="-580134990 -1058049525#5 -1058049525#4 -1058049525#3 -1058049525#2 -1058049525#1 586068821#1 586068821#2 329017055#1 329017055#2 329017055#3 329017055#4 329017055#7 329017055#8 329017055#10 329017055#11 329017055#12 126153267 -850454799#5 -850454799#4 -850454799#3 -328555878 328555878"/>
    </vehicle>
    <vehicle id="9" depart="9.00">
        <route edges="580087353#1 183066602 33400755 850454799#10 850454797#0 850454797#1 8020022#0 8020022#2 8020022#4 8020022#5 1058049525#1 1058049525#2 -1058049525#2"/>
    </vehicle>
    <vehicle id="10" depart="10.00">
        <route edges="49076648#0 -49076648#0 15164176#2 15164179#0 15164179#2 328924277#0 328924277#1 328924277#2 425144818 135765223#0 135765223#1 135765223#2 8020047#0 8020047#1 15164181#0 15164181#1 586068821#1 586068821#2 586068821#3 586068821#4 586068821#5 586068821#7 349601964#1 349601964#4 349601964#5 349601964#7 349601964#9"/>
    </vehicle>
    <vehicle id="11" depart="11.00">
        <route edges="126153302#2 126153302#3 126153302#4 126153302#5 126153302#7 126153302#8 126153302#9 8020044#1 8020044#2 8020044#3 15164179#2 328924277#0 328924277#1 328924277#2 425144818 425144817 1322317948#1 15163928#0 15163928#2 425124374#0 425124374#1 425124374#2 425124374#3 426092137 426106673 43919845#0 43919845#1 43919845#2 -36734040#2"/>
    </vehicle>
    <vehicle id="12" depart="12.00">
        <route edges="8020045 328924277#0 328924277#1 328924277#2 425144818 425144817 1323417170#1 1323417170#2 1323417170#3 8020652#1 8020652#2 8020652#3 590615562#0 590615562#2 -387299826#0 -850454798#1 -850454798#0 -850454799#10 -850454799#9 -850454799#8 -850454799#5 -850454799#4 -850454799#3 -850454799#2 -850454799#1 -850454799#0 -8020040 -172541337#10 -172541337#8 -172541337#7 -172541337#5 126153310"/>
    </vehicle>
    <vehicle id="13" depart="13.00">
        <route edges="-253166934#1 -253166934#0 -733087036#2 -733087036#1 -733087036#0 -93205376#2 -93205376#1 390722710#0 590855843#2 1055850557 1055850556 733087035#0 733087035#1 733087035#2 172541335#1 172541335#3 172541335#4 172541335#5 580097808#1 580097808#2 580097808#3 580097808#4 33399293#2 33399293#3 33399293#4 -26141593 328555736#0 -328555736#0"/>
    </vehicle>
    <vehicle id="14" depart="14.00">
        <route edges="580111089#1 33400755 850454799#10 850454798#0 850454798#1 387299826#0 126153258#0 126153258#1 590615561#0 391552826#1 391552826#3 718204310#0 718204310#1 718204310#2 328924279#2 8020047#0 8020047#1 43924937 389916567#0 389916567#1 8020045 328924277#0 328924277#1"/>
    </vehicle>
    <vehicle id="15" depart="15.00">
        <route edges="579727961 391552826#1 391552826#3 126153344 390401953#0 390401953#1 390401953#2"/>
    </vehicle>
    <vehicle id="16" depart="16.00">
        <route edges="253099957#5 425130014 26140722#0 26140722#1 26140722#2 26140722#3 126153307#1 1323417170#2 1323417170#3 8020652#1 8020652#2 8020652#3 590615562#0 590615562#2 -387299826#0 -850454798#1 -850454798#0 850454798#0"/>
    </vehicle>
    <vehicle id="17" depart="17.00">
        <route edges="135765223#1 135765223#2 8020047#0 8020047#1 43924937 389916567#0 389916567#1 8020045 328924277#0 328924277#1 328924277#2 425144818 425144817 1322317948#1 15163928#0 15163928#2 425124374#0 425124374#1 425124374#2 425124374#3 426092137 426106673 126153253 425130014 26140722#0 26140722#1 26140722#2"/>
    </vehicle>
    <vehicle id="18" depart="18.00">
        <route edges="580097808#2 580097808#3 580097808#4 33399293#2 33399293#3 33399293#4 8020040 850454799#0 850454799#1 850454799#2 850454799#3 850454799#4 126153266#0 126153266#1 -329017055#12 -329017055#11 -329017055#10 -329017055#8 -329017055#7 -329017055#4 -329017055#3 -329017055#2 329017055#2"/>
    </vehicle>
    <vehicle id="19" depart="19.00">
        <route edges="580134988 -580134988 253166934#2 253166934#3 25767806#4 25767806#5 586068821#1 586068821#2 329017055#1 329017055#2 329017055#3 271031134#0 271031134#1 271031134#2 271031134#3"/>
    </vehicle>
    <vehicle id="20" depart="20.00">
        <route edges="349601964#7 349601964#9 580097809#0 580097809#1 -33398788#3 -33398788#2 -33398788#1 580097806#0 580097806#1 580097806#2 172541335#4 172541335#5 580097808#1 580097808#2 580097808#3 580097808#4 33399293#2 33399293#3 33399293#4 -172541337#10 -172541337#8 -172541337#7 -172541337#5 -172541337#4 -172541337#3 -172541337#2 -172541337#1"/>
    </vehicle>
    <vehicle id="21" depart="21.00">
        <route edges="-583509116#1 -583509116#0 329017055#11 329017055#12 126153267 850454799#8 850454799#9 850454799#10 850454798#0 850454798#1 387299826#0 387299826#6 253099957#0 253099957#1 253099957#2 253099957#3 253099957#4 253099957#5 425130014 425949782 425124374#0 425124374#1 425124374#2 425124374#3 426092137 426106673 126153253"/>
    </vehicle>
    <vehicle id="22" depart="22.00">
        <route edges="-242845198#1 -242845198#0 586068819#1 44006926#1 389916567#0 389916567#1 8020045 328924277#0 328924277#1 328924277#2 425144818 425144817 1323417170#1 1323417170#2 1323417170#3 8020652#1 8020652#2 8020652#3 590615562#0 590615562#2 -387299826#0 -850454798#1 -850454798#0 -850454799#10 -850454799#9 -850454799#8 -850454799#5 -850454799#4 -850454799#3 -850454799#2 -850454799#1 -850454799#0 -8020040"/>
    </vehicle>
    <vehicle id="23" depart="23.00">
        <route edges="-26141965#0 850454799#5 850454799#8 850454799#9 850454799#10 850454797#0 850454797#1 8020022#0 8020022#2 8020022#4 8020022#5 1058049525#1 1058049525#2 1058049525#3 1058049525#4 1058049525#5"/>
    </vehicle>
    <vehicle id="24" depart="24.00">
        <route edges="329017057#0 329017057#2 33398731#3 33398731#4 33398731#5 580097806#1 580097806#2 -172541335#3 -172541335#2 -733087035#2 -733087035#1 -733087035#0 -1055850556 -1055850557 -590855843#3 -390722710#1 93205376#0 -93205376#1 390722704#0 390722704#1 25767806#1 25767806#2 25767806#3 25767806#4 25767806#5 586068819#0 586068819#1 44006926#1 389916567#0 389916567#1 8020045 328924277#0 328924277#1 328924277#2 425144818 425144817 1322317948#1 15163928#0 15163928#2 425124374#0 425124374#1 721639602#0 15163868#0"/>
    </vehicle>
    <vehicle id="25" depart="25.00">
        <route edges="1323417170#1 1323417170#2 1323417170#3 718204310#0 718204310#1 718204310#2 328924279#2 8020047#0 8020047#1 15164181#0 15164181#1 586068821#1 586068821#2 586068821#3 586068821#4 586068821#5 586068821#7 590855843#2 -590855843#3"/>
    </vehicle>
    <vehicle id="26" depart="26.00">
        <route edges="-850454798#1 -850454798#0 -850454799#10 850454799#10 850454797#0 850454797#1 8020022#0"/>
    </vehicle>
    <vehicle id="27" depart="27.00">
        <route edges="33398731#3 33398731#4 33398731#5 580097806#1 580097806#2 -172541335#3 -172541335#2 -733087035#2 -733087035#1 -733087035#0 -1055850556 -1055850557 -590855843#3 -390722710#1 93205376#0 -93205376#1 390722704#0 390722704#1 25767806#1 25767806#2 25767806#3 25767806#4 25767806#5 586068821#1 586068821#2 329017055#1"/>
    </vehicle>
    <vehicle id="28" depart="28.00">
        <route edges="-36734040#1 36734040#1 36734040#2 253099957#2 253099957#3 253099957#4 390401959 390401953#0 390401953#1"/>
    </vehicle>
    <vehicle id="29" depart="29.00">
        <route edges="-33401847#0 -183066605 -580111090#1 -580111090#0 -130004808#1 328555878 850454799#3 850454799#4 850454799#5 850454799#8 850454799#9 850454799#10 850454798#0 850454798#1 387299826#0 126153258#0 126153258#1 590615561#0 391552826#1 391552826#3 718204310#0 718204310#1 718204310#2 328924279#2 8020047#0 8020047#1 43924937 389916567#0 389916567#1 15164176#0 15164172#0 15164172#1 15164172#2 15164172#3 15164172#5 15164172#6 15164172#8 15164172#9 15164172#10 15164172#11"/>
    </vehicle>
    <vehicle id="30" depart="30.00">
        <route edges="850454799#4 126153266#0 126153266#1 -329017055#12 -329017055#11 -329017055#10 -329017055#8 -329017055#7 -329017055#4 271031134#0 271031134#1 271031134#2 271031134#3 1059057323#0 1059057323#1 172541335#1 172541335#3 172541335#4 172541335#5 33398791#1 33398731#3 33398731#4 33398731#5"/>
    </vehicle>
    <vehicle id="31" depart="31.00">
        <route edges="25767806#4 25767806#5 586068821#1 586068821#2 329017055#1 329017055#2 329017055#3 329017055#4 329017055#7 329017055#8 329017055#10 329017055#11 329017055#12 126153267 -850454799#5 -850454799#4 -850454799#3 -850454799#2 -850454799#1 -850454799#0 183066606#1 183066606#2 580111090#0 580111090#1 183066605 33401847#0"/>
    </vehicle>
    <vehicle id="32" depart="32.00">
        <route edges="580097811#1 -33398788#3 -33398788#2 -33398788#1 -33398788#0 -580097803#2 -580097803#1 -733087035#2 -733087035#1 -733087035#0 -1055850556 -1055850557 -590855843#3 -390722710#1 93205376#0 -93205376#1 390722704#0 390722704#1 25767806#1 25767806#2 25767806#3 25767806#4 25767806#5 586068819#0 586068819#1 44006926#1 389916567#0 389916567#1 8020045 328924277#0 328924277#1 328924277#2 425144818 425144817 1322317948#1 15163928#0 15163928#2 425124374#0 425124374#1 425124374#2 425124374#3 426092137 426106673 43919845#0 43919845#1"/>
    </vehicle>
    <vehicle id="33" depart="33.00">
        <route edges="-583509116#1 -583509116#0 -329017055#10 -329017055#8 -329017055#7 -329017055#4 15164236#0 -329017310#2 -15164231#1 -15164231#0"/>
    </vehicle>
    <vehicle id="34" depart="34.00">
        <route edges="126153258#1 391552827#0 391552827#1 391552827#2 391552827#3 8020022#0 8020022#2 8020022#4 8020022#5 586068821#1 586068821#2 586068821#3 586068821#4 586068821#5 586068821#7 590855843#2 1055850557"/>
    </vehicle>
    <vehicle id="35" depart="35.00">
        <route edges="-580111090#4 -580111090#1 -580111090#0 -130004808#1 328555878 850454799#3 850454799#4 850454799#5 850454799#8 850454799#9 850454799#10 850454797#0 850454797#1 8020022#0 8020022#2 8020022#4 8020022#5"/>
    </vehicle>
    <vehicle id="36" depart="36.00">
        <route edges="586068819#0 586068819#1 44006926#1 389916567#0 389916567#1 8020045 328924277#0 328924277#1 328924277#2 425144818 135765223#0 135765223#1 135765223#2 8020047#0 8020047#1 15164181#0 15164181#1 586068821#1 586068821#2 586068821#3 586068821#4 586068821#5 586068821#7 349601964#1 349601964#4 349601964#5 349601964#7 349601964#9 580097809#0 126153298"/>
    </vehicle>
    <vehicle id="37" depart="37.00">
        <route edges="33398731#6 -580097803#2 -580097803#1 -733087035#2 -733087035#1 -733087035#0 -1055850556 -1055850557 -590855843#3 -390722710#1 93205376#0 -93205376#1 390722704#0 390722704#1 25767806#1 25767806#2 25767806#3 25767806#4 25767806#5 586068819#0 586068819#1 44006926#1 389916567#0 389916567#1 15164176#0 15164172#0 15164172#1 15164172#2 15164172#3 15164172#5 15164172#6 15164172#8 15164172#9"/>
    </vehicle>
    <vehicle id="38" depart="38.00">
        <route edges="717470580 329017055#3 329017055#4 329017055#7 329017055#8 172541362#0 172541362#1"/>
    </vehicle>
    <vehicle id="39" depart="39.00">
        <route edges="-850454798#0 -850454799#10"/>
    </vehicle>
    <vehicle id="40" depart="40.00">
        <route edges="26140722#0 26140722#1 26140722#2 26140722#3 328924279#2 8020047#0 8020047#1 15164181#0 15164181#1 1058049525#1 1058049525#2 1058049525#3 580134986 580134989 580134988 176086598#2 176086598#3 -733087036#1 -733087036#0 -93205376#2"/>
    </vehicle>
    <vehicle id="41" depart="41.00">
        <route edges="271031134#1 271031134#2 172541349#0 172541349#3 33399293#1 33399293#2 33399293#3 33399293#4 8020040 850454799#0 850454799#1 850454799#2 850454799#3 850454799#4 850454799#5 850454799#8 850454799#9 850454799#10 850454798#0 850454798#1 387299826#0 126153258#0 126153258#1 590615561#0 590615562#0"/>
    </vehicle>
    <vehicle id="42" depart="42.00">
        <route edges="15164172#2 126153302#8 126153302#9 8020044#1 8020044#2 8020044#3 15164179#2 328924277#0 328924277#1 328924277#2 425144818 135765223#0 135765223#1 135765223#2 8020047#0 8020047#1 15164181#0 15164181#1 1058049525#1 1058049525#2 1058049525#3 580134986 580134989 580134988 176086598#2 176086598#3 -733087036#1"/>
    </vehicle>
    <vehicle id="43" depart="43.00">
        <route edges="93205376#0 -93205376#1 390722704#0 390722704#1 25767806#1 25767806#2 25767806#3 25767806#4 25767806#5 586068819#0 242845198#0 242845198#1 242845198#2 242845198#3"/>
    </vehicle>
    <vehicle id="44" depart="44.00">
        <route edges="-253166934#0 -733087036#2 -733087036#1 -733087036#0 -93205376#2 -93205376#1 390722710#0 590855843#2 1055850557 1055850556 733087035#0 733087035#1 733087035#2 172541335#1 172541335#3 172541335#4 172541335#5 580097808#1 580097808#2 580097808#3 580097808#4 33399293#2 33399293#3 33399293#4 -172541337#10"/>
    </vehicle>
    <vehicle id="46" depart="46.00">
        <route edges="44006926#1 389916567#0 389916567#1 8020045 328924277#0 328924277#1 328924277#2 425144818 135765223#0 135765223#1 135765223#2 8020047#0 8020047#1 15164181#0 15164181#1 586068821#1 329017310#1 329017310#2 15164236#1"/>
    </vehicle>
    <vehicle id="47" depart="47.00">
        <route edges="-172541337#5 172541337#5 172541337#7 172541337#8 172541337#10 8020040 850454799#0 850454799#1 850454799#2 850454799#3 850454799#4 850454799#5 850454799#8 850454799#9 850454799#10 850454798#0 850454798#1 387299826#0 126153258#0 126153258#1 590615561#0 391552826#1 391552826#3 718204310#0 718204310#1 718204310#2 328924279#2 8020047#0 8020047#1 43924937 389916567#0 389916567#1 15164176#0 15164172#0 15164172#1 15164172#2 15164172#3 15164172#5 15164172#6 15164172#8 15164172#9 15164172#10 15164172#11 15164172#12"/>
    </vehicle>
    <vehicle id="48" depart="48.00">
        <route edges="93205376#0 93205376#2 733087036#0 733087036#1 733087036#2 253166934#0"/>
    </vehicle>
    <vehicle id="49" depart="49.00">
        <route edges="850454797#1 -391552827#3 -391552827#2 -391552827#1 126153272#0 126153272#2 583509115"/>
    </vehicle>
    <vehicle id="50" depart="50.00">
        <route edges="-1058049525#4 -1058049525#3 -1058049525#2 -1058049525#1 586068819#0 586068819#1 44006926#1 389916567#0 389916567#1"/>
    </vehicle>
    <vehicle id="51" depart="51.00">
        <route edges="33399497#2 172541362#7 172541362#8 -172541335#3 -172541335#2 -733087035#2 -733087035#1 -733087035#0 -1055850556 -1055850557 -590855843#3 -390722710#1 93205376#0 -93205376#1 390722704#0 390722704#1 25767806#1"/>
    </vehicle>
    <vehicle id="52" depart="52.00">
        <route edges="-850454798#1 -850454798#0 -850454799#10 -850454799#9 -850454799#8 -850454799#5 126153266#0 126153266#1 -329017055#12 -329017055#11 -329017055#10 -329017055#8 -329017055#7 -329017055#4 271031134#0 271031134#1 271031134#2 271031134#3 1059057323#0 1059057323#1 172541335#1 172541335#3 172541335#4 172541335#5 33398791#1 33398731#3 33398731#4 33398731#5"/>
    </vehicle>
    <vehicle id="53" depart="53.00">
        <route edges="-328555736#1 -328555736#0 328555879 -172541337#8 -172541337#7 33399497#1 33399497#2 172541362#7 172541362#8 172541335#4 172541335#5 172541335#8"/>
    </vehicle>
    <vehicle id="54" depart="54.00">
        <route edges="172541337#2 172541337#3 172541337#4 172541337#5 172541337#7 172541337#8 172541337#10 8020040 850454799#0 850454799#1 850454799#2 850454799#3 850454799#4 850454799#5 850454799#8 850454799#9 850454799#10 850454798#0 850454798#1 387299826#0 126153258#0 126153258#1 590615561#0 391552826#1 391552826#3 718204310#0 718204310#1 718204310#2 328924279#2 8020047#0 8020047#1 43924937 389916567#0 389916567#1 15164176#0 15164172#0 15164172#1 15164172#2 126153302#8 126153302#9 8020044#1 8020044#2 8020044#3"/>
    </vehicle>
    <vehicle id="55" depart="55.00">
        <route edges="586068819#0 586068819#1 44006926#1 389916567#0 389916567#1 8020045 328924277#0 328924277#1 328924277#2 425144818 135765223#0 135765223#1 135765223#2 8020047#0 8020047#1 15164181#0 15164181#1 1058049525#1 1058049525#2 1058049525#3 580134986 580134989 580134988 176086598#2 176086598#3 -733087036#1 -733087036#0 -93205376#2"/>
    </vehicle>
    <vehicle id="56" depart="56.00">
        <route edges="183066606#2 -130004808#1 328555878 850454799#3 850454799#4 850454799#5 850454799#8 850454799#9 850454799#10 850454798#0 850454798#1 387299826#0 126153258#0 126153258#1 590615561#0 -579727961"/>
    </vehicle>
    <vehicle id="57" depart="57.00">
        <route edges="597075280 4527217#7 4527217#8 4527217#9 426106673 126153253 425130014 425949782 425124374#0 425124374#1 425124374#2 425124374#3 584971024#0"/>
    </vehicle>
    <vehicle id="58" depart="58.00">
        <route edges="1058049525#2 -1058049525#2 -1058049525#1 586068821#1 586068821#2 586068821#3 586068821#4 586068821#5 586068821#7 590855843#2 1055850557 1055850556 733087035#0 733087035#1 733087035#2 172541335#1 172541335#3 172541335#4 172541335#5 33398791#1 33398731#3 33398731#4"/>
    </vehicle>
    <vehicle id="59" depart="59.00">
        <route edges="328924277#0 328924277#1 328924277#2 425144818 425144817 1322317948#1 15163928#0 15163928#2 425124374#0 425124374#1 425124374#2 425124374#3 426092137 426106673 43919845#0 43919845#1 43919845#2 -36734040#2 -36734040#1"/>
    </vehicle>
    <vehicle id="60" depart="60.00">
        <route edges="425124374#2 425124374#3 426092137 426106673 126153253 425130014 26140722#0 26140722#1 26140722#2 26140722#3 328924279#2 8020047#0 8020047#1 15164181#0 15164181#1 586068821#1 586068821#2 586068821#3 586068821#4 586068821#5 586068821#7 590855843#2 -590855843#3 -390722710#1 93205376#0 -93205376#1 390722704#0 390722704#1 25767806#1 25767806#2"/>
    </vehicle>
    <vehicle id="61" depart="61.00">
        <route edges="426106673 126153253 425130014 26140722#0 26140722#1 26140722#2 26140722#3 328924279#2 8020047#0 8020047#1 15164181#0 15164181#1 1058049525#1 1058049525#2 1058049525#3 580134986 580134989 -253166934#1 253166934#1"/>
    </vehicle>
    <vehicle id="62" depart="62.00">
        <route edges="-1055850556 -1055850557 -590855843#3 -390722710#1 93205376#0 -93205376#1 390722704#0 390722704#1 25767806#1 25767806#2 25767806#3 25767806#4 25767806#5 586068819#0 586068819#1 44006926#1 389916567#0 389916567#1 15164176#0 15164172#0 15164172#1 15164172#2 15164172#3 15164172#5 15164172#6 15164172#8 15164172#9 15164172#10 15164172#11 15164172#12 126153302#1 126153302#2 126153302#3 126153302#4"/>
    </vehicle>
    <vehicle id="63" depart="63.00">
        <route edges="-126153272#0 391552827#1 391552827#2 391552827#3 8020022#0 580087353#1 580087353#2 580087353#3 -329017055#8 -329017055#7 -329017055#4 271031134#0 271031134#1 271031134#2 271031134#3 1059057323#0 1059057323#1 -733087035#2 733087035#2"/>
    </vehicle>
    <vehicle id="64" depart="64.00">
        <route edges="586068819#1 44006926#1 389916567#0 389916567#1 8020045 328924277#0 328924277#1 328924277#2 425144818 135765223#0 135765223#1 135765223#2 8020047#0 8020047#1 15164181#0 15164181#1 586068821#1 586068821#2 586068821#3 586068821#4 586068821#5 586068821#7 349601964#1 349601964#4 349601964#5 349601964#7 349601964#9 580097809#0 580097809#1"/>
    </vehicle>
    <vehicle id="65" depart="65.00">
        <route edges="1059057323#1 172541335#1 172541335#3 172541335#4 172541335#5 580097808#1 580097808#2 580097808#3 580097808#4 33399293#2 33399293#3 33399293#4 -172541337#10 -172541337#8 -172541337#7"/>
    </vehicle>
    <vehicle id="66" depart="66.00">
        <route edges="586068819#1 44006926#1 389916567#0 389916567#1 8020045 328924277#0 328924277#1 328924277#2 425144818 425144817 1323417170#1 1323417170#2 1323417170#3 8020652#1 8020652#2 8020652#3 590615562#0 590615562#2 -387299826#0 -850454798#1 -850454798#0 -850454799#10 -850454799#9 -850454799#8 -850454799#5 -850454799#4 -850454799#3 -850454799#2 -850454799#1 -850454799#0 -8020040 8020040"/>
    </vehicle>
    <vehicle id="67" depart="67.00">
        <route edges="-242845198#4 -242845198#3 -242845198#2 -242845198#1 -242845198#0 586068819#1 44006926#1 389916567#0 389916567#1 8020045 328924277#0 328924277#1 328924277#2 425144818 135765223#0 135765223#1 135765223#2 8020047#0 8020047#1 15164181#0 15164181#1 586068821#1 586068821#2 329017055#1 329017055#2 329017055#3 329017055#4 183066608#1"/>
    </vehicle>
    <vehicle id="68" depart="68.00">
        <route edges="-172541348 172541348 387299826#0 387299826#6 253099957#0 253099957#1 253099957#2 253099957#3 253099957#4 253099957#5 425130014"/>
    </vehicle>
    <vehicle id="69" depart="69.00">
        <route edges="425124374#3 426092137 426106673 43919845#0 43919845#1 43919845#2 43919845#3 -387299826#6 -387299826#0 -850454798#1 -850454798#0 -850454799#10 -850454799#9 -850454799#8 -850454799#5 126153266#0 126153266#1 -329017055#12 -329017055#11 -329017055#10 -329017055#8"/>
    </vehicle>
    <vehicle id="70" depart="70.00">
        <route edges="172541362#1 183066613 -583509116#1 -583509116#0 329017055#11 329017055#12 126153267 850454799#8 850454799#9 850454799#10 850454798#0 850454798#1 387299826#0 387299826#6 253099957#0 253099957#1 253099957#2 253099957#3 253099957#4 253099957#5 425130014 26140722#0 26140722#1"/>
    </vehicle>
    <vehicle id="71" depart="71.00">
        <route edges="-850454798#0 850454798#0 850454798#1 387299826#0 387299826#6 253099957#0 253099957#1 253099957#2 253099957#3 253099957#4 253099957#5 425130014 425949782 425124374#0 425124374#1 425124374#2 425124374#3 584971024#0 584971024#1"/>
    </vehicle>
    <vehicle id="72" depart="72.00">
        <route edges="15164181#0 15164181#1 586068821#1 586068821#2 586068821#3 586068821#4 586068821#5 586068821#7 590855843#2 1055850557 1055850556 733087035#0 -733087035#0"/>
    </vehicle>
    <vehicle id="73" depart="73.00">
        <route edges="253166933#1 -125875445 -1058049525#5 -1058049525#4 -1058049525#3 -1058049525#2 -1058049525#1 586068819#0 586068819#1 44006926#1 389916567#0 389916567#1 8020045 328924277#0 328924277#1 328924277#2 425144818 425144817 1323417170#1 1323417170#2 1323417170#3 126153344 390401953#0 390401953#1 390401953#2"/>
    </vehicle>
    <vehicle id="74" depart="74.00">
        <route edges="-580097803#1 -733087035#2 -733087035#1 -733087035#0 -1055850556 -1055850557 -590855843#3 -390722710#1 93205376#0 -93205376#1 390722704#0 390722704#1 25767806#1 25767806#2 25767806#3 25767806#4 25767806#5 586068819#0 586068819#1 44006926#1 389916567#0 389916567#1 15164176#0 15164172#0 15164172#1 15164172#2 126153302#8 126153277"/>
    </vehicle>
    <vehicle id="75" depart="75.00">
        <route edges="850454799#9 -850454799#9 -850454799#8 -850454799#5 126153266#0 126153266#1 -329017055#12 -329017055#11 -329017055#10 -329017055#8 -329017055#7 -329017055#4 271031134#0 271031134#1 271031134#2 271031134#3 1059057323#0 1059057323#1 580097803#1 580097803#2 33398788#0 33398788#1 33398788#2"/>
    </vehicle>
    <vehicle id="76" depart="76.00">
        <route edges="15164236#1 15164236#2 -8020022#2 -8020022#0 -850454797#1 -850454797#0 850454798#0 850454798#1 387299826#0 387299826#6 253099957#0 253099957#1 253099957#2"/>
    </vehicle>
    <vehicle id="77" depart="77.00">
        <route edges="-32885918#1 32885918#1 126153283 8020044#1 8020044#2 8020044#3 15164179#2 328924277#0 328924277#1 328924277#2 425144818 135765223#0 135765223#1 135765223#2 8020047#0 8020047#1 15164181#0 15164181#1 -8020022#5 -8020022#4 -8020022#2 -8020022#0"/>
    </vehicle>
    <vehicle id="78" depart="78.00">
        <route edges="126153302#1 126153302#2 126153302#3 126153302#4 126153302#5 126153302#7 126153302#8 126153302#9 8020044#1 8020044#2 8020044#3 15164179#2 328924277#0 328924277#1 328924277#2 425144818 425144817 1323417170#1 1323417170#2 1323417170#3 8020652#1 8020652#2 8020652#3 590615562#0 590615562#2 -387299826#0 -850454798#1 -850454798#0 -850454799#10 -850454799#9 -850454799#8 -850454799#5 -850454799#4 -850454799#3 -328555878 328555878"/>
    </vehicle>
    <vehicle id="79" depart="79.00">
        <route edges="-583981628 391552826#3 718204310#0 718204310#1 718204310#2 328924279#2 8020047#0 8020047#1 15164181#0 15164181#1 1058049525#1 1058049525#2 1058049525#3 580134986 580134989 580134988 176086598#2 176086598#3 -733087036#1"/>
    </vehicle>
    <vehicle id="80" depart="80.00">
        <route edges="-183066605 -580111090#1 -580111090#0 -130004808#1 328555878 850454799#3 850454799#4 126153266#0 126153266#1 -329017055#12 -329017055#11 -329017055#10 -329017055#8 -329017055#7 -329017055#4 15164236#0 -329017310#2 -329017310#1 329017310#1"/>
    </vehicle>
    <vehicle id="82" depart="82.00">
        <route edges="580134986 -125875445 -1058049525#5 242845196 242845198#2 -242845198#2"/>
    </vehicle>
    <vehicle id="83" depart="83.00">
        <route edges="-733087035#1 733087035#1 733087035#2 172541335#1 172541335#3 172541335#4 172541335#5 580097808#1 580097808#2 580097808#3 580097808#4 33399293#2 33399293#3 33399293#4 -172541337#10 -172541337#8 -172541337#7 33399497#1"/>
    </vehicle>
    <vehicle id="84" depart="84.00">
        <route edges="-580111090#5 33401751#2 -328555736#1 -328555736#0 26141593 8020040 850454799#0 850454799#1 850454799#2 850454799#3 850454799#4 126153266#0 126153266#1 -329017055#12 -329017055#11 -329017055#10 -329017055#8 -329017055#7 -329017055#4 15164236#0 -329017310#2"/>
    </vehicle>
    <vehicle id="85" depart="85.00">
        <route edges="733087036#2 253166934#0 253166934#1 253166934#2 253166934#3 25767806#4 25767806#5 586068821#1 586068821#2 329017055#1 329017055#2 329017055#3 271031134#0"/>
    </vehicle>
    <vehicle id="86" depart="86.00">
        <route edges="172541362#0 172541362#1 183066613 -583509116#1 -583509116#0 -329017055#10 -329017055#8 -329017055#7 -329017055#4 15164236#0 15164236#1 15164236#2 8020022#4 8020022#5 586068819#0 586068819#1 44006926#1 389916567#0 389916567#1 15164176#0 15164176#1 15164176#2 44006919#0"/>
    </vehicle>
    <vehicle id="87" depart="87.00">
        <route edges="579727961 391552826#1 8020652#2 8020652#3 590615562#0 590615562#2 -387299826#0 -850454798#1 -850454798#0 -850454799#10 -850454799#9 -850454799#8 -850454799#5 -850454799#4 -850454799#3 -850454799#2 -850454799#1 -850454799#0 183066606#1 183066606#2 580111090#0 580111090#1 580111090#4 -580111090#4"/>
    </vehicle>
    <vehicle id="88" depart="88.00">
        <route edges="-253166934#3 -253166934#2 -253166934#1 -253166934#0 -733087036#2 -733087036#1 -733087036#0 -93205376#2 -93205376#1 390722710#0 590855843#2 1055850557 1055850556 733087035#0 733087035#1 733087035#2 172541335#1 172541335#3 172541335#4"/>
    </vehicle>
    <vehicle id="89" depart="89.00">