<?xml version="1.0" encoding="UTF-8"?>

<!-- generated on 12/17/24 16:00:59 by Eclipse SUMO netconvert Version 1.8.0
<configuration xmlns:xsi="http://www.w3.org/2001/XMLSchema-instance" xsi:noNamespaceSchemaLocation="http://sumo.dlr.de/xsd/netconvertConfiguration.xsd">

    <input>
        <osm-files value="map.osm"/>
    </input>

    <output>
        <output-file value="city.net.xml"/>
    </output>

    <projection>
        <proj.utm value="true"/>
    </projection>

    <processing>
        <geometry.remove value="true"/>
        <roundabouts.guess value="true"/>
    </processing>

    <tls_building>
        <tls.discard-simple value="true"/>
        <tls.join value="true"/>
        <tls.guess-signals value="true"/>
    </tls_building>

    <ramp_guessing>
        <ramps.guess value="true"/>
    </ramp_guessing>

    <junctions>
        <junctions.join value="true"/>
    </junctions>

    <report>
        <aggregate-warnings value="5"/>
    </report>

</configuration>
-->

<net version="1.6" junctionCornerDetail="5" limitTurnSpeed="5.50" xmlns:xsi="http://www.w3.org/2001/XMLSchema-instance" xsi:noNamespaceSchemaLocation="http://sumo.dlr.de/xsd/net_file.xsd">

    <location netOffset="-593252.41,-3499753.66" convBoundary="0.00,0.00,2734.18,2089.56" origBoundary="-8.076761,31.626690,-7.987695,31.647998" projParameter="+proj=utm +zone=29 +ellps=WGS84 +datum=WGS84 +units=m +no_defs"/>

    <type id="highway.bridleway" priority="1" numLanes="1" speed="2.78" allow="pedestrian" oneway="1" width="2.00"/>
    <type id="highway.bus_guideway" priority="1" numLanes="1" speed="27.78" allow="bus" oneway="1"/>
    <type id="highway.cycleway" priority="1" numLanes="1" speed="8.33" allow="bicycle" oneway="0" width="1.00"/>
    <type id="highway.footway" priority="1" numLanes="1" speed="2.78" allow="pedestrian" oneway="1" width="2.00"/>
    <type id="highway.ford" priority="1" numLanes="1" speed="2.78" allow="army" oneway="0"/>
    <type id="highway.living_street" priority="2" numLanes="1" speed="2.78" disallow="tram rail_urban rail rail_electric rail_fast ship" oneway="0"/>
    <type id="highway.motorway" priority="14" numLanes="2" speed="39.44" allow="private emergency authority army vip passenger hov taxi bus coach delivery truck trailer motorcycle evehicle custom1 custom2" oneway="1"/>
    <type id="highway.motorway_link" priority="9" numLanes="1" speed="22.22" allow="private emergency authority army vip passenger hov taxi bus coach delivery truck trailer motorcycle evehicle custom1 custom2" oneway="1"/>
    <type id="highway.path" priority="1" numLanes="1" speed="2.78" allow="pedestrian bicycle" oneway="0" width="2.00"/>
    <type id="highway.pedestrian" priority="1" numLanes="1" speed="2.78" allow="pedestrian" oneway="1" width="2.00"/>
    <type id="highway.primary" priority="12" numLanes="2" speed="27.78" disallow="tram rail_urban rail rail_electric rail_fast ship" oneway="0"/>
    <type id="highway.primary_link" priority="7" numLanes="1" speed="22.22" disallow="tram rail_urban rail rail_electric rail_fast ship" oneway="0"/>
    <type id="highway.raceway" priority="15" numLanes="2" speed="83.33" allow="vip" oneway="0"/>
    <type id="highway.residential" priority="3" numLanes="1" speed="13.89" disallow="tram rail_urban rail rail_electric rail_fast ship" oneway="0"/>
    <type id="highway.secondary" priority="11" numLanes="1" speed="27.78" disallow="tram rail_urban rail rail_electric rail_fast ship" oneway="0"/>
    <type id="highway.secondary_link" priority="6" numLanes="1" speed="22.22" disallow="tram rail_urban rail rail_electric rail_fast ship" oneway="0"/>
    <type id="highway.service" priority="1" numLanes="1" speed="5.56" allow="pedestrian delivery bicycle" oneway="0"/>
    <type id="highway.stairs" priority="1" numLanes="1" speed="1.39" allow="pedestrian" oneway="1" width="2.00"/>
    <type id="highway.step" priority="1" numLanes="1" speed="1.39" allow="pedestrian" oneway="1" width="2.00"/>
    <type id="highway.steps" priority="1" numLanes="1" speed="1.39" allow="pedestrian" oneway="1" width="2.00"/>
    <type id="highway.tertiary" priority="10" numLanes="1" speed="22.22" disallow="tram rail_urban rail rail_electric rail_fast ship" oneway="0"/>
    <type id="highway.tertiary_link" priority="5" numLanes="1" speed="22.22" disallow="tram rail_urban rail rail_electric rail_fast ship" oneway="0"/>
    <type id="highway.track" priority="1" numLanes="1" speed="5.56" allow="pedestrian motorcycle moped bicycle" oneway="0"/>
    <type id="highway.trunk" priority="13" numLanes="2" speed="27.78" disallow="pedestrian bicycle tram rail_urban rail rail_electric rail_fast ship" oneway="0"/>
    <type id="highway.trunk_link" priority="8" numLanes="1" speed="22.22" disallow="pedestrian bicycle tram rail_urban rail rail_electric rail_fast ship" oneway="0"/>
    <type id="highway.unclassified" priority="4" numLanes="1" speed="13.89" disallow="tram rail_urban rail rail_electric rail_fast ship" oneway="0"/>
    <type id="highway.unsurfaced" priority="1" numLanes="1" speed="8.33" disallow="tram rail_urban rail rail_electric rail_fast ship" oneway="0"/>
    <type id="railway.highspeed" priority="21" numLanes="1" speed="69.44" allow="rail_fast" oneway="1"/>
    <type id="railway.light_rail" priority="19" numLanes="1" speed="27.78" allow="rail_urban" oneway="1"/>
    <type id="railway.preserved" priority="16" numLanes="1" speed="27.78" allow="rail" oneway="1"/>
    <type id="railway.rail" priority="20" numLanes="1" speed="44.44" allow="rail" oneway="1"/>
    <type id="railway.subway" priority="18" numLanes="1" speed="27.78" allow="rail_urban" oneway="1"/>
    <type id="railway.tram" priority="17" numLanes="1" speed="13.89" allow="tram" oneway="1"/>

    <edge id=":10763209838_0" function="internal">
        <lane id=":10763209838_0_0" index="0" disallow="tram rail_urban rail rail_electric rail_fast ship" speed="3.65" length="4.67" shape="215.86,754.18 214.42,754.20 213.64,753.77 213.51,752.89 214.04,751.55"/>
    </edge>
    <edge id=":10763209840_0" function="internal">
        <lane id=":10763209840_0_0" index="0" disallow="tram rail_urban rail rail_electric rail_fast ship" speed="3.65" length="4.67" shape="214.62,763.00 214.50,761.57 214.88,760.75 215.75,760.57 217.13,761.01"/>
    </edge>
    <edge id=":10773026484_0" function="internal">
        <lane id=":10773026484_0_0" index="0" allow="pedestrian bicycle" speed="2.78" length="2.92" width="2.00" shape="1728.34,423.25 1729.19,423.54 1729.57,423.95 1729.46,424.50 1728.87,425.18"/>
    </edge>
    <edge id=":11057267243_0" function="internal">
        <lane id=":11057267243_0_0" index="0" allow="pedestrian delivery bicycle" speed="5.56" length="0.47" shape="1748.45,804.65 1748.39,804.53 1748.34,804.44 1748.28,804.37 1748.19,804.27"/>
    </edge>
    <edge id=":11057267243_1" function="internal">
        <lane id=":11057267243_1_0" index="0" allow="pedestrian delivery bicycle" speed="5.56" length="1.42" shape="1750.52,802.08 1750.81,802.39 1750.99,802.61 1751.13,802.86 1751.32,803.23"/>
    </edge>
    <edge id=":11205922114_0" function="internal">
        <lane id=":11205922114_0_0" index="0" allow="pedestrian delivery bicycle" speed="3.65" length="4.67" shape="519.10,1006.36 517.88,1005.58 517.47,1004.79 517.86,1003.98 519.05,1003.16"/>
    </edge>
    <edge id=":11205922130_0" function="internal">
        <lane id=":11205922130_0_0" index="0" allow="pedestrian delivery bicycle" speed="3.65" length="4.67" shape="526.03,1181.01 524.88,1181.89 524.00,1182.01 523.37,1181.37 522.99,1179.98"/>
    </edge>
    <edge id=":11377808537_0" function="internal">
        <lane id=":11377808537_0_0" index="0" allow="pedestrian delivery bicycle" speed="3.65" length="4.67" shape="1677.89,382.23 1679.16,381.55 1680.05,381.57 1680.57,382.30 1680.71,383.74"/>
    </edge>
    <edge id=":11539162612_0" function="internal">
        <lane id=":11539162612_0_0" index="0" disallow="tram rail_urban rail rail_electric rail_fast ship" speed="22.22" length="9.76" shape="403.41,382.14 393.67,381.58"/>
    </edge>
    <edge id=":11539162612_1" function="internal">
        <lane id=":11539162612_1_0" index="0" allow="pedestrian delivery bicycle" speed="6.68" length="5.39" shape="403.41,382.14 400.03,381.46 398.51,380.25"/>
    </edge>
    <edge id=":11539162612_2" function="internal">
        <lane id=":11539162612_2_0" index="0" disallow="tram rail_urban rail rail_electric rail_fast ship" speed="3.65" length="2.34" shape="403.41,382.14 402.26,381.27 401.91,380.45"/>
    </edge>
    <edge id=":11539162612_9" function="internal">
        <lane id=":11539162612_9_0" index="0" allow="pedestrian delivery bicycle" speed="6.68" length="6.58" shape="398.51,380.25 398.05,379.88 397.47,377.42 398.31,374.07"/>
    </edge>
    <edge id=":11539162612_10" function="internal">
        <lane id=":11539162612_10_0" index="0" disallow="tram rail_urban rail rail_electric rail_fast ship" speed="3.65" length="2.34" shape="401.91,380.45 402.35,379.67 403.60,378.94"/>
    </edge>
    <edge id=":11539162612_3" function="internal">
        <lane id=":11539162612_3_0" index="0" allow="pedestrian delivery bicycle" speed="4.77" length="5.45" shape="401.27,375.27 400.89,376.79 401.15,377.92 402.06,378.63 403.60,378.94"/>
    </edge>
    <edge id=":11539162612_4" function="internal">
        <lane id=":11539162612_4_0" index="0" allow="pedestrian delivery bicycle" speed="7.98" length="10.58" shape="401.27,375.27 399.80,378.13 398.04,380.14 396.00,381.29 393.67,381.58"/>
    </edge>
    <edge id=":11539162612_5" function="internal">
        <lane id=":11539162612_5_0" index="0" allow="pedestrian delivery bicycle" speed="3.65" length="4.67" shape="401.27,375.27 400.08,376.08 399.19,376.15 398.60,375.48 398.31,374.07"/>
    </edge>
    <edge id=":11539162612_6" function="internal">
        <lane id=":11539162612_6_0" index="0" allow="pedestrian delivery bicycle" speed="6.43" length="6.59" shape="393.86,378.38 395.13,378.17 396.29,377.38 397.35,376.01 398.31,374.07"/>
    </edge>
    <edge id=":11539162612_7" function="internal">
        <lane id=":11539162612_7_0" index="0" disallow="tram rail_urban rail rail_electric rail_fast ship" speed="22.22" length="9.76" shape="393.86,378.38 403.60,378.94"/>
    </edge>
    <edge id=":11539162612_8" function="internal">
        <lane id=":11539162612_8_0" index="0" disallow="tram rail_urban rail rail_electric rail_fast ship" speed="3.65" length="2.34" shape="393.86,378.38 395.01,379.25 395.36,380.07"/>
    </edge>
    <edge id=":11539162612_11" function="internal">
        <lane id=":11539162612_11_0" index="0" disallow="tram rail_urban rail rail_electric rail_fast ship" speed="3.65" length="2.34" shape="395.36,380.07 394.92,380.85 393.67,381.58"/>
    </edge>
    <edge id=":11539162613_0" function="internal">
        <lane id=":11539162613_0_0" index="0" allow="pedestrian delivery bicycle" speed="3.65" length="4.67" shape="419.24,322.33 420.44,321.52 421.33,321.45 421.92,322.12 422.21,323.53"/>
    </edge>
    <edge id=":11539162614_0" function="internal">
        <lane id=":11539162614_0_0" index="0" disallow="tram rail_urban rail rail_electric rail_fast ship" speed="22.22" length="9.56" shape="362.72,379.79 353.18,379.24"/>
    </edge>
    <edge id=":11539162614_1" function="internal">
        <lane id=":11539162614_1_0" index="0" allow="pedestrian delivery bicycle" speed="6.72" length="5.25" shape="362.72,379.79 359.58,379.16 357.95,377.92"/>
    </edge>
    <edge id=":11539162614_2" function="internal">
        <lane id=":11539162614_2_0" index="0" disallow="tram rail_urban rail rail_electric rail_fast ship" speed="3.65" length="2.34" shape="362.72,379.79 361.57,378.93 361.22,378.10"/>
    </edge>
    <edge id=":11539162614_9" function="internal">
        <lane id=":11539162614_9_0" index="0" allow="pedestrian delivery bicycle" speed="6.72" length="6.06" shape="357.95,377.92 357.63,377.67 356.87,375.34 357.29,372.17"/>
    </edge>
    <edge id=":11539162614_10" function="internal">
        <lane id=":11539162614_10_0" index="0" disallow="tram rail_urban rail rail_electric rail_fast ship" speed="3.65" length="2.34" shape="361.22,378.10 361.66,377.33 362.91,376.60"/>
    </edge>
    <edge id=":11539162614_3" function="internal">
        <lane id=":11539162614_3_0" index="0" allow="pedestrian delivery bicycle" speed="4.84" length="5.28" shape="360.37,373.04 360.17,374.52 360.53,375.61 361.44,376.30 362.91,376.60"/>
    </edge>
    <edge id=":11539162614_4" function="internal">
        <lane id=":11539162614_4_0" index="0" allow="pedestrian delivery bicycle" speed="7.52" length="10.36" shape="360.37,373.04 359.23,375.87 357.65,377.85 355.64,378.97 353.18,379.24"/>
    </edge>
    <edge id=":11539162614_5" function="internal">
        <lane id=":11539162614_5_0" index="0" allow="pedestrian delivery bicycle" speed="3.65" length="4.67" shape="360.37,373.04 359.27,373.97 358.40,374.14 357.73,373.54 357.29,372.17"/>
    </edge>
    <edge id=":11539162614_6" function="internal">
        <lane id=":11539162614_6_0" index="0" allow="pedestrian delivery bicycle" speed="5.88" length="5.99" shape="353.37,376.05 354.66,375.87 355.74,375.16 356.62,373.93 357.29,372.17"/>
    </edge>
    <edge id=":11539162614_7" function="internal">
        <lane id=":11539162614_7_0" index="0" disallow="tram rail_urban rail rail_electric rail_fast ship" speed="22.22" length="9.56" shape="353.37,376.05 362.91,376.60"/>
    </edge>
    <edge id=":11539162614_8" function="internal">
        <lane id=":11539162614_8_0" index="0" disallow="tram rail_urban rail rail_electric rail_fast ship" speed="3.65" length="2.34" shape="353.37,376.05 354.52,376.92 354.87,377.74"/>
    </edge>
    <edge id=":11539162614_11" function="internal">
        <lane id=":11539162614_11_0" index="0" disallow="tram rail_urban rail rail_electric rail_fast ship" speed="3.65" length="2.34" shape="354.87,377.74 354.43,378.51 353.18,379.24"/>
    </edge>
    <edge id=":11539162618_0" function="internal">
        <lane id=":11539162618_0_0" index="0" allow="pedestrian delivery bicycle" speed="3.65" length="4.67" shape="388.00,345.36 389.02,346.37 389.27,347.23 388.72,347.94 387.39,348.50"/>
    </edge>
    <edge id=":11539162627_0" function="internal">
        <lane id=":11539162627_0_0" index="0" disallow="tram rail_urban rail rail_electric rail_fast ship" speed="22.22" length="5.68" shape="314.41,377.06 308.73,376.81"/>
    </edge>
    <edge id=":11539162627_1" function="internal">
        <lane id=":11539162627_1_0" index="0" allow="pedestrian delivery bicycle" speed="6.74" length="2.01" shape="314.41,377.06 313.58,376.11 313.30,375.41"/>
    </edge>
    <edge id=":11539162627_2" function="internal">
        <lane id=":11539162627_2_0" index="0" disallow="tram rail_urban rail rail_electric rail_fast ship" speed="3.65" length="2.34" shape="314.41,377.06 313.24,376.21 312.88,375.39"/>
    </edge>
    <edge id=":11539162627_9" function="internal">
        <lane id=":11539162627_9_0" index="0" allow="pedestrian delivery bicycle" speed="6.74" length="5.47" shape="313.30,375.41 312.72,373.98 312.01,371.69 311.60,370.22"/>
    </edge>
    <edge id=":11539162627_10" function="internal">
        <lane id=":11539162627_10_0" index="0" disallow="tram rail_urban rail rail_electric rail_fast ship" speed="3.65" length="2.34" shape="312.88,375.39 313.31,374.61 314.55,373.86"/>
    </edge>
    <edge id=":11539162627_3" function="internal">
        <lane id=":11539162627_3_0" index="0" allow="pedestrian delivery bicycle" speed="5.37" length="4.47" shape="314.69,369.39 314.55,373.86"/>
    </edge>
    <edge id=":11539162627_4" function="internal">
        <lane id=":11539162627_4_0" index="0" allow="pedestrian delivery bicycle" speed="6.69" length="11.83" shape="314.69,369.39 315.09,372.77 314.23,375.13 312.11,376.48 308.73,376.81"/>
    </edge>
    <edge id=":11539162627_5" function="internal">
        <lane id=":11539162627_5_0" index="0" allow="pedestrian delivery bicycle" speed="3.65" length="4.67" shape="314.69,369.39 314.23,370.76 313.56,371.35 312.68,371.17 311.60,370.22"/>
    </edge>
    <edge id=":11539162627_6" function="internal">
        <lane id=":11539162627_6_0" index="0" allow="pedestrian delivery bicycle" speed="4.78" length="5.41" shape="308.87,373.61 310.42,373.46 311.39,372.84 311.78,371.76 311.60,370.22"/>
    </edge>
    <edge id=":11539162627_7" function="internal">
        <lane id=":11539162627_7_0" index="0" disallow="tram rail_urban rail rail_electric rail_fast ship" speed="22.22" length="5.68" shape="308.87,373.61 314.55,373.86"/>
    </edge>
    <edge id=":11539162627_8" function="internal">
        <lane id=":11539162627_8_0" index="0" disallow="tram rail_urban rail rail_electric rail_fast ship" speed="3.65" length="2.34" shape="308.87,373.61 310.03,374.46 310.40,375.28"/>
    </edge>
    <edge id=":11539162627_11" function="internal">
        <lane id=":11539162627_11_0" index="0" disallow="tram rail_urban rail rail_electric rail_fast ship" speed="3.65" length="2.34" shape="310.40,375.28 309.96,376.06 308.73,376.81"/>
    </edge>
    <edge id=":11539162632_0" function="internal">
        <lane id=":11539162632_0_0" index="0" disallow="tram rail_urban rail rail_electric rail_fast ship" speed="22.22" length="9.73" shape="283.61,375.69 273.89,375.25"/>
    </edge>
    <edge id=":11539162632_1" function="internal">
        <lane id=":11539162632_1_0" index="0" allow="pedestrian delivery bicycle" speed="6.68" length="5.37" shape="283.61,375.69 280.24,375.06 278.70,373.87"/>
    </edge>
    <edge id=":11539162632_2" function="internal">
        <lane id=":11539162632_2_0" index="0" disallow="tram rail_urban rail rail_electric rail_fast ship" speed="3.65" length="2.34" shape="283.61,375.69 282.44,374.83 282.08,374.02"/>
    </edge>
    <edge id=":11539162632_9" function="internal">
        <lane id=":11539162632_9_0" index="0" allow="pedestrian delivery bicycle" speed="6.68" length="6.51" shape="278.70,373.87 278.25,373.52 277.62,371.08 278.35,367.74"/>
    </edge>
    <edge id=":11539162632_10" function="internal">
        <lane id=":11539162632_10_0" index="0" disallow="tram rail_urban rail rail_electric rail_fast ship" speed="3.65" length="2.34" shape="282.08,374.02 282.52,373.24 283.75,372.49"/>
    </edge>
    <edge id=":11539162632_3" function="internal">
        <lane id=":11539162632_3_0" index="0" allow="pedestrian delivery bicycle" speed="4.77" length="5.43" shape="281.35,368.86 281.01,370.39 281.30,371.50 282.21,372.20 283.75,372.49"/>
    </edge>
    <edge id=":11539162632_4" function="internal">
        <lane id=":11539162632_4_0" index="0" allow="pedestrian delivery bicycle" speed="7.92" length="10.54" shape="281.35,368.86 279.95,371.74 278.25,373.77 276.22,374.94 273.89,375.25"/>
    </edge>
    <edge id=":11539162632_5" function="internal">
        <lane id=":11539162632_5_0" index="0" allow="pedestrian delivery bicycle" speed="3.65" length="4.67" shape="281.35,368.86 280.18,369.70 279.29,369.80 278.68,369.14 278.35,367.74"/>
    </edge>
    <edge id=":11539162632_6" function="internal">
        <lane id=":11539162632_6_0" index="0" allow="pedestrian delivery bicycle" speed="6.35" length="6.51" shape="274.03,372.06 275.30,371.83 276.44,371.04 277.46,369.67 278.35,367.74"/>
    </edge>
    <edge id=":11539162632_7" function="internal">
        <lane id=":11539162632_7_0" index="0" disallow="tram rail_urban rail rail_electric rail_fast ship" speed="22.22" length="9.73" shape="274.03,372.06 283.75,372.49"/>
    </edge>
    <edge id=":11539162632_8" function="internal">
        <lane id=":11539162632_8_0" index="0" disallow="tram rail_urban rail rail_electric rail_fast ship" speed="3.65" length="2.34" shape="274.03,372.06 275.19,372.91 275.56,373.73"/>
    </edge>
    <edge id=":11539162632_11" function="internal">
        <lane id=":11539162632_11_0" index="0" disallow="tram rail_urban rail rail_electric rail_fast ship" speed="3.65" length="2.34" shape="275.56,373.73 275.12,374.51 273.89,375.25"/>
    </edge>
    <edge id=":11573989452_0" function="internal">
        <lane id=":11573989452_0_0" index="0" disallow="tram rail_urban rail rail_electric rail_fast ship" speed="3.65" length="4.67" shape="1362.45,506.04 1361.71,504.81 1361.69,503.91 1362.40,503.36 1363.83,503.16"/>
    </edge>
    <edge id=":12236032321_0" function="internal">
        <lane id=":12236032321_0_0" index="0" allow="pedestrian delivery bicycle" speed="5.56" length="4.35" shape="1635.55,883.77 1637.36,887.72"/>
    </edge>
    <edge id=":1296011604_0" function="internal">
        <lane id=":1296011604_0_0" index="0" disallow="tram rail_urban rail rail_electric rail_fast ship" speed="3.65" length="4.67" shape="1295.83,90.57 1296.70,89.42 1297.53,89.08 1298.30,89.53 1299.02,90.78"/>
    </edge>
    <edge id=":1399374066_0" function="internal">
        <lane id=":1399374066_0_0" index="0" allow="pedestrian delivery bicycle" speed="7.65" length="8.85" shape="1623.93,285.02 1622.58,283.72 1621.77,281.94 1621.48,279.68 1621.74,276.95"/>
    </edge>
    <edge id=":1399374066_1" function="internal">
        <lane id=":1399374066_1_0" index="0" allow="pedestrian delivery bicycle" speed="3.65" length="4.67" shape="1623.93,285.02 1623.37,283.69 1623.47,282.80 1624.25,282.36 1625.69,282.35"/>
    </edge>
    <edge id=":1399374066_2" function="internal">
        <lane id=":1399374066_2_0" index="0" disallow="tram rail_urban rail rail_electric rail_fast ship" speed="13.89" length="10.26" shape="1617.15,286.64 1618.58,276.40"/>
        <lane id=":1399374066_2_1" index="1" disallow="tram rail_urban rail rail_electric rail_fast ship" speed="13.89" length="10.26" shape="1620.33,287.03 1621.74,276.95"/>
    </edge>
    <edge id=":1399374066_4" function="internal">
        <lane id=":1399374066_4_0" index="0" allow="pedestrian delivery bicycle" speed="5.73" length="9.16" shape="1620.33,287.03 1621.01,283.88 1622.13,282.06 1623.69,281.54 1625.69,282.35"/>
    </edge>
    <edge id=":1399374095_0" function="internal">
        <lane id=":1399374095_0_0" index="0" allow="pedestrian delivery bicycle" speed="5.04" length="6.63" shape="1632.31,286.83 1630.92,286.50 1629.91,287.08 1629.26,288.57 1628.99,290.97"/>
    </edge>
    <edge id=":1399374095_1" function="internal">
        <lane id=":1399374095_1_0" index="0" allow="pedestrian delivery bicycle" speed="5.56" length="8.38" shape="1632.31,286.83 1629.97,286.12 1628.18,286.18 1626.42,286.17 1624.23,285.22"/>
    </edge>
    <edge id=":1399374095_2" function="internal">
        <lane id=":1399374095_2_0" index="0" allow="pedestrian delivery bicycle" speed="4.19" length="5.82" shape="1632.31,286.83 1630.52,286.63 1629.62,285.97 1629.61,284.86 1630.48,283.29"/>
    </edge>
    <edge id=":1399374095_3" function="internal">
        <lane id=":1399374095_3_0" index="0" allow="pedestrian delivery bicycle" speed="5.56" length="4.67" shape="1625.99,282.54 1627.17,283.18 1628.09,283.38 1629.08,283.34 1630.48,283.29"/>
    </edge>
    <edge id=":1399374095_4" function="internal">
        <lane id=":1399374095_4_0" index="0" allow="pedestrian delivery bicycle" speed="5.56" length="9.32" shape="1625.99,282.54 1627.37,283.86 1628.34,285.70 1628.88,288.07 1628.99,290.97"/>
    </edge>
    <edge id=":1399374095_5" function="internal">
        <lane id=":1399374095_5_0" index="0" allow="pedestrian delivery bicycle" speed="3.65" length="4.67" shape="1625.99,282.54 1626.55,283.87 1626.45,284.76 1625.67,285.21 1624.23,285.22"/>
    </edge>
    <edge id=":1399374095_6" function="internal">
        <lane id=":1399374095_6_0" index="0" allow="pedestrian delivery bicycle" speed="5.56" length="4.72" shape="1625.84,289.44 1625.77,288.01 1625.48,286.83 1624.97,285.90 1624.23,285.22"/>
    </edge>
    <edge id=":1399374095_7" function="internal">
        <lane id=":1399374095_7_0" index="0" allow="pedestrian delivery bicycle" speed="5.56" length="8.69" shape="1625.84,289.44 1626.20,286.73 1627.09,284.81 1628.52,283.66 1630.48,283.29"/>
    </edge>
    <edge id=":1399374095_8" function="internal">
        <lane id=":1399374095_8_0" index="0" allow="pedestrian delivery bicycle" speed="3.77" length="5.12" shape="1625.84,289.44 1627.20,288.64 1628.18,288.63 1628.78,289.41 1628.99,290.97"/>
    </edge>
    <edge id=":1399374164_0" function="internal">
        <lane id=":1399374164_0_0" index="0" disallow="tram rail_urban rail rail_electric rail_fast ship" speed="13.89" length="5.21" shape="1388.82,304.62 1385.30,308.46"/>
    </edge>
    <edge id=":1399374164_1" function="internal">
        <lane id=":1399374164_1_0" index="0" disallow="tram rail_urban rail rail_electric rail_fast ship" speed="3.65" length="2.34" shape="1388.82,304.62 1387.41,304.93 1386.56,304.66"/>
    </edge>
    <edge id=":1399374164_4" function="internal">
        <lane id=":1399374164_4_0" index="0" disallow="tram rail_urban rail rail_electric rail_fast ship" speed="3.65" length="2.34" shape="1386.56,304.66 1386.26,303.82 1386.51,302.40"/>
    </edge>
    <edge id=":1399374164_2" function="internal">
        <lane id=":1399374164_2_0" index="0" disallow="tram rail_urban rail rail_electric rail_fast ship" speed="13.89" length="5.44" shape="1382.83,306.42 1386.51,302.40"/>
    </edge>
    <edge id=":1399374164_3" function="internal">
        <lane id=":1399374164_3_0" index="0" disallow="tram rail_urban rail rail_electric rail_fast ship" speed="3.65" length="2.34" shape="1382.83,306.42 1384.22,306.01 1385.09,306.21"/>
    </edge>
    <edge id=":1399374164_5" function="internal">
        <lane id=":1399374164_5_0" index="0" disallow="tram rail_urban rail rail_electric rail_fast ship" speed="3.65" length="2.34" shape="1385.09,306.21 1385.45,307.03 1385.30,308.46"/>
    </edge>
    <edge id=":1399374172_0" function="internal">
        <lane id=":1399374172_0_0" index="0" allow="pedestrian delivery bicycle" speed="5.56" length="11.86" shape="1632.94,318.13 1630.51,315.93 1628.69,313.97 1627.22,311.76 1625.84,308.81"/>
    </edge>
    <edge id=":1399374172_1" function="internal">
        <lane id=":1399374172_1_0" index="0" allow="pedestrian delivery bicycle" speed="5.56" length="12.66" shape="1632.94,318.13 1630.51,315.31 1629.94,312.77 1631.24,310.51 1634.41,308.55"/>
    </edge>
    <edge id=":1399374172_2" function="internal">
        <lane id=":1399374172_2_0" index="0" allow="pedestrian delivery bicycle" speed="3.65" length="4.67" shape="1632.94,318.13 1632.57,316.74 1632.80,315.87 1633.63,315.54 1635.06,315.73"/>
    </edge>
    <edge id=":1399374172_3" function="internal">
        <lane id=":1399374172_3_0" index="0" allow="pedestrian delivery bicycle" speed="4.71" length="5.63" shape="1635.71,311.47 1634.30,312.34 1633.72,313.35 1633.98,314.48 1635.06,315.73"/>
    </edge>
    <edge id=":1399374172_4" function="internal">
        <lane id=":1399374172_4_0" index="0" allow="pedestrian delivery bicycle" speed="5.56" length="11.69" shape="1635.71,311.47 1632.31,312.54 1629.53,312.46 1627.37,311.21 1625.84,308.81"/>
    </edge>
    <edge id=":1399374172_5" function="internal">
        <lane id=":1399374172_5_0" index="0" allow="pedestrian delivery bicycle" speed="3.65" length="4.67" shape="1635.71,311.47 1634.29,311.23 1633.60,310.66 1633.64,309.76 1634.41,308.55"/>
    </edge>
    <edge id=":1399374172_6" function="internal">
        <lane id=":1399374172_6_0" index="0" allow="pedestrian delivery bicycle" speed="5.17" length="6.85" shape="1628.85,307.60 1629.25,308.92 1630.31,309.52 1632.03,309.39 1634.41,308.55"/>
    </edge>
    <edge id=":1399374172_7" function="internal">
        <lane id=":1399374172_7_0" index="0" allow="pedestrian delivery bicycle" speed="5.56" length="10.41" shape="1628.85,307.60 1629.28,309.14 1630.46,311.01 1632.38,313.21 1635.06,315.73"/>
    </edge>
    <edge id=":1399374172_8" function="internal">
        <lane id=":1399374172_8_0" index="0" allow="pedestrian delivery bicycle" speed="3.83" length="4.73" shape="1628.85,307.60 1628.55,309.03 1627.95,309.71 1627.05,309.63 1625.84,308.81"/>
    </edge>
    <edge id=":1399374175_0" function="internal">
        <lane id=":1399374175_0_0" index="0" disallow="tram rail_urban rail rail_electric rail_fast ship" speed="6.45" length="9.03" shape="349.24,301.63 346.79,301.17 344.81,301.62 343.29,302.97 342.22,305.21"/>
    </edge>
    <edge id=":1399374175_1" function="internal">
        <lane id=":1399374175_1_0" index="0" disallow="tram rail_urban rail rail_electric rail_fast ship" speed="3.65" length="4.67" shape="349.24,301.63 348.36,300.49 348.23,299.60 348.87,298.97 350.26,298.60"/>
    </edge>
    <edge id=":1399374175_2" function="internal">
        <lane id=":1399374175_2_0" index="0" disallow="tram rail_urban rail rail_electric rail_fast ship" speed="6.65" length="9.20" shape="346.38,291.45 346.04,293.88 346.57,295.89 347.98,297.46 350.26,298.60"/>
    </edge>
    <edge id=":1399374175_3" function="internal">
        <lane id=":1399374175_3_0" index="0" disallow="tram rail_urban rail rail_electric rail_fast ship" speed="13.89" length="14.36" shape="346.38,291.45 342.22,305.21"/>
        <lane id=":1399374175_3_1" index="1" disallow="tram rail_urban rail rail_electric rail_fast ship" speed="13.89" length="14.36" shape="343.31,290.54 339.17,304.26"/>
    </edge>
    <edge id=":1399374217_0" function="internal">
        <lane id=":1399374217_0_0" index="0" disallow="tram rail_urban rail rail_electric rail_fast ship" speed="13.89" length="9.43" shape="1644.72,322.44 1636.79,327.29"/>